[General]
cmdenv-express-mode = true
cmdenv-autoflush = true
cmdenv-status-frequency = 1s
**.cmdenv-log-level = info

image-path = ../../images

network = RSUExampleScenario

##########################################################
#            Simulation parameters                       #
##########################################################
debug-on-errors = true
print-undisposed = true

sim-time-limit = 3600s

**.scalar-recording = true
**.vector-recording = true

*.playgroundSizeX = 15500m
*.playgroundSizeY = 21000m
*.playgroundSizeZ = 50m


##########################################################
# Annotation parameters                                  #
##########################################################
*.annotations.draw = true

##########################################################
# Obstacle parameters                                    #
##########################################################

##########################################################
#            TraCIScenarioManager parameters             #
##########################################################
*.manager.updateInterval = 0.1s
*.manager.host = "localhost"
*.manager.port = 9999
*.manager.autoShutdown = true
*.manager.launchConfig = xmldoc("osm.launchd.xml")

##########################################################
#                       RSU SETTINGS                     #
#                                                        #
#                                                        #
##########################################################
*.rsu[0].mobility.x = 1500
*.rsu[0].mobility.y = 2300
*.rsu[0].mobility.z = 3

*.rsu[1].mobility.x = 7000
*.rsu[1].mobility.y = 2000
*.rsu[1].mobility.z = 3

*.rsu[2].mobility.x = 2000
*.rsu[2].mobility.y = 7000
*.rsu[2].mobility.z = 3

*.rsu[3].mobility.x = 9500
*.rsu[3].mobility.y = 7000
*.rsu[3].mobility.z = 3

*.rsu[4].mobility.x = 3000
*.rsu[4].mobility.y = 13000
*.rsu[4].mobility.z = 3

*.rsu[5].mobility.x = 10400
*.rsu[5].mobility.y = 13000
*.rsu[5].mobility.z = 3

*.rsu[6].mobility.x = 4400
*.rsu[6].mobility.y = 19000
*.rsu[6].mobility.z = 3

*.rsu[7].mobility.x = 11000
*.rsu[7].mobility.y = 17000
*.rsu[7].mobility.z = 3

*.rsu[8].mobility.x = 9300
*.rsu[8].mobility.y = 19000
*.rsu[8].mobility.z = 3

*.rsu[*].applType = "PotholesDetectionRSU"
*.rsu[*].appl.headerLength = 80 bit
*.rsu[*].appl.sendBeacons = true
*.rsu[*].appl.dataOnSch = false
*.rsu[*].appl.warnPotholes = false
*.rsu[*].appl.beaconInterval = 20s
*.rsu[*].appl.beaconUserPriority = 7
*.rsu[*].appl.dataUserPriority = 5
*.rsu[*].nic.phy80211p.antennaOffsetZ = 0 m

##########################################################
#            11p specific parameters                     #
#                                                        #
#                    NIC-Settings                        #
##########################################################
*.connectionManager.sendDirect = true
*.connectionManager.maxInterfDist = 2600m
*.connectionManager.drawMaxIntfDist = false

*.**.nic.mac1609_4.useServiceChannel = false

*.**.nic.mac1609_4.txPower = 20mW
*.**.nic.mac1609_4.bitrate = 6Mbps
*.**.nic.phy80211p.minPowerLevel = -110dBm

*.**.nic.phy80211p.useNoiseFloor = true
*.**.nic.phy80211p.noiseFloor = -98dBm

*.**.nic.phy80211p.decider = xmldoc("config.xml")
*.**.nic.phy80211p.analogueModels = xmldoc("config.xml")
*.**.nic.phy80211p.usePropagationDelay = true

*.**.nic.phy80211p.antenna = xmldoc("antenna.xml", "/root/Antenna[@id='monopole']")
*.node[*].nic.phy80211p.antennaOffsetY = 0 m
*.node[*].nic.phy80211p.antennaOffsetZ = 1.895 m

##########################################################
#                      App Layer                         #
##########################################################
*.node[*].applType = "PotholesSimulation"
*.node[*].appl.headerLength = 80 bit
*.node[*].appl.sendBeacons = false
*.node[*].appl.warnPotholes = false
*.node[*].appl.dataOnSch = false
*.node[*].appl.beaconInterval = 1s

##########################################################
#                      Mobility                          #
##########################################################
*.node[*].veinsmobility.x = 0
*.node[*].veinsmobility.y = 0
*.node[*].veinsmobility.z = 0
*.node[*].veinsmobility.setHostSpeed = false
*.node[*0].veinsmobility.accidentCount = 0
*.node[*0].veinsmobility.accidentStart = 73s
*.node[*0].veinsmobility.accidentDuration = 50s

[Config WithPotholeWarnings]

*.node[*].appl.warnPotholes = true