<?xml version="1.0" encoding="UTF-8"?>

<!-- generated on 2021-10-13 23:02:52 by Eclipse SUMO duarouter Version 1.10.0
<configuration xmlns:xsi="http://www.w3.org/2001/XMLSchema-instance" xsi:noNamespaceSchemaLocation="http://sumo.dlr.de/xsd/duarouterConfiguration.xsd">

    <input>
        <net-file value="/home/pedro/Sumo/2021-10-13-22-59-10/osm.net.xml"/>
        <route-files value="/home/pedro/Sumo/2021-10-13-22-59-10/osm.passenger.trips.xml"/>
    </input>

    <output>
        <output-file value="/home/pedro/Sumo/2021-10-13-22-59-10/osm.passenger.trips.xml.tmp"/>
        <write-trips value="true"/>
    </output>

    <time>
        <begin value="0"/>
        <end value="3600"/>
    </time>

    <report>
        <no-warnings value="true"/>
        <ignore-errors value="true"/>
        <no-step-log value="true"/>
    </report>

</configuration>
-->

<routes xmlns:xsi="http://www.w3.org/2001/XMLSchema-instance" xsi:noNamespaceSchemaLocation="http://sumo.dlr.de/xsd/routes_file.xsd">
    <vType id="veh_passenger" vClass="passenger"/>
    <trip id="veh0" type="veh_passenger" depart="0.00" departLane="best" from="286619566#1" to="-128807616#0"/>
    <trip id="veh1" type="veh_passenger" depart="0.17" departLane="best" from="-358402571#1" to="-380516099#11"/>
    <trip id="veh2" type="veh_passenger" depart="0.34" departLane="best" from="310668918#0-AddedOffRampEdge" to="308973186#3"/>
    <trip id="veh3" type="veh_passenger" depart="0.51" departLane="best" from="803588393" to="-247886016"/>
    <trip id="veh4" type="veh_passenger" depart="0.67" departLane="best" departSpeed="max" from="-967510403" to="-131549480#1"/>
    <trip id="veh5" type="veh_passenger" depart="0.84" departLane="best" departSpeed="max" from="-305654317" to="254151462"/>
    <trip id="veh6" type="veh_passenger" depart="1.01" departLane="best" departSpeed="max" from="-127011608" to="-309094852#0"/>
    <trip id="veh7" type="veh_passenger" depart="1.18" departLane="best" departSpeed="max" from="286619695#0" to="282625899#2"/>
    <trip id="veh8" type="veh_passenger" depart="1.35" departLane="best" from="-305654624#1" to="293254378#6"/>
    <trip id="veh9" type="veh_passenger" depart="1.52" departLane="best" from="4626755#1-AddedOffRampEdge" to="-114975868"/>
    <trip id="veh10" type="veh_passenger" depart="1.68" departLane="best" from="4626684#4" to="358399416#1"/>
    <trip id="veh12" type="veh_passenger" depart="2.02" departLane="best" from="939982938" to="111051557"/>
    <trip id="veh13" type="veh_passenger" depart="2.19" departLane="best" departSpeed="max" from="-244041289" to="-252952898#0"/>
    <trip id="veh14" type="veh_passenger" depart="2.36" departLane="best" from="5586938" to="296351015#1"/>
    <trip id="veh15" type="veh_passenger" depart="2.53" departLane="best" departSpeed="max" from="4626699#0" to="380516116#1"/>
    <trip id="veh16" type="veh_passenger" depart="2.70" departLane="best" from="169339069#1" to="941616725"/>
    <trip id="veh17" type="veh_passenger" depart="2.86" departLane="best" departSpeed="max" from="-823715643" to="286619496#2"/>
    <trip id="veh18" type="veh_passenger" depart="3.03" departLane="best" from="489458902" to="301831300#2"/>
    <trip id="veh19" type="veh_passenger" depart="3.20" departLane="best" from="619825349" to="292986391#1"/>
    <trip id="veh20" type="veh_passenger" depart="3.37" departLane="best" from="305654318#1" to="-168640371#1"/>
    <trip id="veh22" type="veh_passenger" depart="3.71" departLane="best" departSpeed="max" from="-169922718" to="-386626733#0"/>
    <trip id="veh23" type="veh_passenger" depart="3.88" departLane="best" from="-247888822" to="-699133631#3"/>
    <trip id="veh24" type="veh_passenger" depart="4.04" departLane="best" from="286619496#0" to="126999761#0"/>
    <trip id="veh25" type="veh_passenger" depart="4.21" departLane="best" departSpeed="max" from="-705412172" to="-358399427#4"/>
    <trip id="veh26" type="veh_passenger" depart="4.38" departLane="best" from="-319773141#0" to="933614618"/>
    <trip id="veh29" type="veh_passenger" depart="4.89" departLane="best" departSpeed="max" from="-286619674" to="128650251#2-AddedOffRampEdge"/>
    <trip id="veh30" type="veh_passenger" depart="5.05" departLane="best" from="969173160" to="304899377#0"/>
    <trip id="veh31" type="veh_passenger" depart="5.22" departLane="best" from="170057316#4" to="309111706"/>
    <trip id="veh34" type="veh_passenger" depart="5.73" departLane="best" departSpeed="max" from="-426151118" to="-621303437#7"/>
    <trip id="veh36" type="veh_passenger" depart="6.07" departLane="best" from="651621006#1" to="-967448541"/>
    <trip id="veh37" type="veh_passenger" depart="6.23" departLane="best" from="292771162#1" to="142599108#1"/>
    <trip id="veh38" type="veh_passenger" depart="6.40" departLane="best" from="842044650" to="170057316#0"/>
    <trip id="veh39" type="veh_passenger" depart="6.57" departLane="best" from="-318128797#2" to="-417923388"/>
    <trip id="veh40" type="veh_passenger" depart="6.74" departLane="best" from="193125288#1-AddedOnRampEdge" to="-523134218"/>
    <trip id="veh41" type="veh_passenger" depart="6.91" departLane="best" departSpeed="max" from="247889831" to="835132666"/>
    <trip id="veh42" type="veh_passenger" depart="7.08" departLane="best" from="-841538259#2" to="-380513248#0"/>
    <trip id="veh43" type="veh_passenger" depart="7.25" departLane="best" from="987548387" to="259325308"/>
    <trip id="veh44" type="veh_passenger" depart="7.41" departLane="best" from="-203526961" to="-168640375"/>
    <trip id="veh45" type="veh_passenger" depart="7.58" departLane="best" from="-254446386" to="302935643#0"/>
    <trip id="veh46" type="veh_passenger" depart="7.75" departLane="best" from="419266356#1" to="168640351"/>
    <trip id="veh47" type="veh_passenger" depart="7.92" departLane="best" from="-168640414#3" to="128807603#2"/>
    <trip id="veh48" type="veh_passenger" depart="8.09" departLane="best" departSpeed="max" from="975572814" to="264545465#8"/>
    <trip id="veh50" type="veh_passenger" depart="8.42" departLane="best" departSpeed="max" from="-124281324" to="380513281"/>
    <trip id="veh53" type="veh_passenger" depart="8.93" departLane="best" departSpeed="max" from="-258646239" to="168656082#0-AddedOnRampEdge"/>
    <trip id="veh54" type="veh_passenger" depart="9.10" departLane="best" departSpeed="max" from="125835811" to="939972818"/>
    <trip id="veh55" type="veh_passenger" depart="9.27" departLane="best" from="651621006#0" to="-537449871#3"/>
    <trip id="veh57" type="veh_passenger" depart="9.60" departLane="best" from="841554799#1" to="746015927#5"/>
    <trip id="veh58" type="veh_passenger" depart="9.77" departLane="best" from="-380516125" to="304892320"/>
    <trip id="veh62" type="veh_passenger" depart="10.45" departLane="best" from="-126999703#12" to="893167782"/>
    <trip id="veh63" type="veh_passenger" depart="10.61" departLane="best" from="696928084" to="619825349"/>
    <trip id="veh64" type="veh_passenger" depart="10.78" departLane="best" from="-417919657#0" to="-169339075"/>
    <trip id="veh65" type="veh_passenger" depart="10.95" departLane="best" from="683394652#0" to="939527418"/>
    <trip id="veh66" type="veh_passenger" depart="11.12" departLane="best" from="-169928639#2" to="247887462"/>
    <trip id="veh67" type="veh_passenger" depart="11.29" departLane="best" departSpeed="max" from="-169339068#1" to="437462435#0"/>
    <trip id="veh68" type="veh_passenger" depart="11.46" departLane="best" departSpeed="max" from="380516103" to="-286619492#3"/>
    <trip id="veh69" type="veh_passenger" depart="11.63" departLane="best" from="128650251#2" to="286525098#1"/>
    <trip id="veh70" type="veh_passenger" depart="11.79" departLane="best" from="-318462588#1" to="746255964"/>
    <trip id="veh71" type="veh_passenger" depart="11.96" departLane="best" departSpeed="max" from="-967734579" to="-358402562#1"/>
    <trip id="veh73" type="veh_passenger" depart="12.30" departLane="best" from="-301987333#2" to="-965514514#0"/>
    <trip id="veh74" type="veh_passenger" depart="12.47" departLane="best" departSpeed="max" from="974335558" to="305797200"/>
    <trip id="veh75" type="veh_passenger" depart="12.64" departLane="best" from="111047041" to="259520824"/>
    <trip id="veh76" type="veh_passenger" depart="12.81" departLane="best" from="-259520826#0" to="-380516103"/>
    <trip id="veh77" type="veh_passenger" depart="12.97" departLane="best" departSpeed="max" from="-537449876#2" to="293254378#0"/>
    <trip id="veh80" type="veh_passenger" depart="13.48" departLane="best" from="619763204#4-AddedOnRampEdge" to="-169922992"/>
    <trip id="veh81" type="veh_passenger" depart="13.65" departLane="best" from="-308825943#1" to="308958426#1"/>
    <trip id="veh82" type="veh_passenger" depart="13.82" departLane="best" from="-304892320" to="-286619572"/>
    <trip id="veh83" type="veh_passenger" depart="13.98" departLane="best" from="92231487#4-AddedOnRampEdge" to="287782211#1"/>
    <trip id="veh84" type="veh_passenger" depart="14.15" departLane="best" departSpeed="max" from="128650248#0" to="489099733#0"/>
    <trip id="veh85" type="veh_passenger" depart="14.32" departLane="best" departSpeed="max" from="4626699#0" to="-308826496#1"/>
    <trip id="veh87" type="veh_passenger" depart="14.66" departLane="best" departSpeed="max" from="-967734579" to="203508042"/>
    <trip id="veh88" type="veh_passenger" depart="14.83" departLane="best" from="308973285#2" to="308967657"/>
    <trip id="veh89" type="veh_passenger" depart="15.00" departLane="best" departSpeed="max" from="967510400" to="-252981727"/>
    <trip id="veh90" type="veh_passenger" depart="15.16" departLane="best" from="-845197524" to="111051591#1"/>
    <trip id="veh91" type="veh_passenger" depart="15.33" departLane="best" from="619825349" to="-426413099"/>
    <trip id="veh92" type="veh_passenger" depart="15.50" departLane="best" from="-296351022#2" to="169773722#2"/>
    <trip id="veh93" type="veh_passenger" depart="15.67" departLane="best" departSpeed="max" from="-967510403" to="-70497467"/>
    <trip id="veh94" type="veh_passenger" depart="15.84" departLane="best" departSpeed="max" from="-308969201" to="864904321"/>
    <trip id="veh95" type="veh_passenger" depart="16.01" departLane="best" from="111051593" to="698776619"/>
    <trip id="veh96" type="veh_passenger" depart="16.18" departLane="best" from="169922992" to="-168640404#2"/>
    <trip id="veh97" type="veh_passenger" depart="16.34" departLane="best" from="987548388#1" to="621303437#13"/>
    <trip id="veh98" type="veh_passenger" depart="16.51" departLane="best" from="940018410" to="878174724"/>
    <trip id="veh101" type="veh_passenger" depart="17.02" departLane="best" from="-841564359#2" to="-169339080#0"/>
    <trip id="veh102" type="veh_passenger" depart="17.19" departLane="best" departSpeed="max" from="-823717548" to="967448539#2"/>
    <trip id="veh103" type="veh_passenger" depart="17.35" departLane="best" from="-31944268" to="486437199"/>
    <trip id="veh104" type="veh_passenger" depart="17.52" departLane="best" from="126306712#2" to="168640366#4"/>
    <trip id="veh105" type="veh_passenger" depart="17.69" departLane="best" from="939982938" to="974340935"/>
    <trip id="veh106" type="veh_passenger" depart="17.86" departLane="best" from="169928640#7" to="380513251#1"/>
    <trip id="veh107" type="veh_passenger" depart="18.03" departLane="best" from="-286619566#0" to="-840519733"/>
    <trip id="veh108" type="veh_passenger" depart="18.20" departLane="best" from="940018410" to="292986604"/>
    <trip id="veh109" type="veh_passenger" depart="18.37" departLane="best" from="169773736#5" to="417919671"/>
    <trip id="veh110" type="veh_passenger" depart="18.53" departLane="best" from="-168640371#0" to="292988036#1"/>
    <trip id="veh111" type="veh_passenger" depart="18.70" departLane="best" from="153713991#1-AddedOffRampEdge" to="651609801#0"/>
    <trip id="veh112" type="veh_passenger" depart="18.87" departLane="best" from="-286619594#1" to="939982940"/>
    <trip id="veh114" type="veh_passenger" depart="19.21" departLane="best" from="252952242#1" to="308969202#1"/>
    <trip id="veh117" type="veh_passenger" depart="19.71" departLane="best" from="252952241#3" to="301832270#2"/>
    <trip id="veh118" type="veh_passenger" depart="19.88" departLane="best" from="-967448539#1" to="292987954"/>
    <trip id="veh119" type="veh_passenger" depart="20.05" departLane="best" from="168640377#0" to="92231527#1"/>
    <trip id="veh120" type="veh_passenger" depart="20.22" departLane="best" from="-302014108" to="380510661#6"/>
    <trip id="veh121" type="veh_passenger" depart="20.39" departLane="best" from="-308826175#2" to="142700825"/>
    <trip id="veh122" type="veh_passenger" depart="20.56" departLane="best" from="294272972#4" to="-841564359#5"/>
    <trip id="veh123" type="veh_passenger" depart="20.72" departLane="best" from="-436176957#2" to="417924289#1"/>
    <trip id="veh125" type="veh_passenger" depart="21.06" departLane="best" from="987548388#0" to="975903426"/>
    <trip id="veh127" type="veh_passenger" depart="21.40" departLane="best" from="-31944268" to="92231475#2"/>
    <trip id="veh128" type="veh_passenger" depart="21.57" departLane="best" from="70498613#0" to="803559637#2"/>
    <trip id="veh129" type="veh_passenger" depart="21.74" departLane="best" departSpeed="max" from="-70498609" to="-296765926#1"/>
    <trip id="veh130" type="veh_passenger" depart="21.90" departLane="best" from="510879305" to="358402550"/>
    <trip id="veh131" type="veh_passenger" depart="22.07" departLane="best" from="259520819#0" to="967510403"/>
    <trip id="veh133" type="veh_passenger" depart="22.41" departLane="best" from="48464412#0-AddedOffRampEdge" to="-841564359#0"/>
    <trip id="veh134" type="veh_passenger" depart="22.58" departLane="best" from="292988316" to="933630613"/>
    <trip id="veh135" type="veh_passenger" depart="22.75" departLane="best" departSpeed="max" from="-27092052#2" to="-27092050#0"/>
    <trip id="veh136" type="veh_passenger" depart="22.91" departLane="best" from="-252981727" to="286619528#1"/>
    <trip id="veh137" type="veh_passenger" depart="23.08" departLane="best" from="-358399430#1" to="296351024#1"/>
    <trip id="veh139" type="veh_passenger" depart="23.42" departLane="best" departSpeed="max" from="286619489#0" to="-545136595"/>
    <trip id="veh140" type="veh_passenger" depart="23.59" departLane="best" departSpeed="max" from="142599103" to="838499502"/>
    <trip id="veh141" type="veh_passenger" depart="23.76" departLane="best" from="5585968" to="-247891920#0"/>
    <trip id="veh142" type="veh_passenger" depart="23.93" departLane="best" departSpeed="max" from="-967734579" to="-696534049"/>
    <trip id="veh143" type="veh_passenger" depart="24.09" departLane="best" departSpeed="max" from="-105917056" to="464636378"/>
    <trip id="veh145" type="veh_passenger" depart="24.43" departLane="best" from="322544358" to="286619494#2"/>
    <trip id="veh146" type="veh_passenger" depart="24.60" departLane="best" departSpeed="max" from="-990867712" to="-124281322"/>
    <trip id="veh148" type="veh_passenger" depart="24.94" departLane="best" departSpeed="max" from="835132649" to="285843568#0"/>
    <trip id="veh149" type="veh_passenger" depart="25.11" departLane="best" from="51381968#0" to="292987749"/>
    <trip id="veh150" type="veh_passenger" depart="25.27" departLane="best" from="-286524901#1" to="-286619489#0"/>
    <trip id="veh151" type="veh_passenger" depart="25.44" departLane="best" from="-417919662#1" to="835132670"/>
    <trip id="veh152" type="veh_passenger" depart="25.61" departLane="best" from="436176957#1" to="696534050"/>
    <trip id="veh154" type="veh_passenger" depart="25.95" departLane="best" departSpeed="max" from="-308969201" to="-259382537#1"/>
    <trip id="veh155" type="veh_passenger" depart="26.12" departLane="best" departSpeed="max" from="417122301" to="823698102"/>
    <trip id="veh156" type="veh_passenger" depart="26.28" departLane="best" departSpeed="max" from="-850003141" to="301987333#1"/>
    <trip id="veh157" type="veh_passenger" depart="26.45" departLane="best" departSpeed="max" from="-286619564#2" to="89316817#3"/>
    <trip id="veh159" type="veh_passenger" depart="26.79" departLane="best" from="464636380" to="803588393"/>
    <trip id="veh160" type="veh_passenger" depart="26.96" departLane="best" departSpeed="max" from="-126999761#1" to="386626725"/>
    <trip id="veh162" type="veh_passenger" depart="27.30" departLane="best" from="437462439#1" to="70498603"/>
    <trip id="veh163" type="veh_passenger" depart="27.46" departLane="best" from="464636379" to="-621303437#11"/>
    <trip id="veh164" type="veh_passenger" depart="27.63" departLane="best" departSpeed="max" from="417919674#0" to="-259554457#0"/>
    <trip id="veh165" type="veh_passenger" depart="27.80" departLane="best" from="640143624#0" to="683394652#1"/>
    <trip id="veh166" type="veh_passenger" depart="27.97" departLane="best" departSpeed="max" from="-305660497" to="5585869#6"/>
    <trip id="veh167" type="veh_passenger" depart="28.14" departLane="best" departSpeed="max" from="126999742" to="-855382942#1"/>
    <trip id="veh168" type="veh_passenger" depart="28.31" departLane="best" from="431332242" to="-380516119#1"/>
    <trip id="veh169" type="veh_passenger" depart="28.48" departLane="best" departSpeed="max" from="-126999733" to="-308966350"/>
    <trip id="veh170" type="veh_passenger" depart="28.64" departLane="best" from="-489099742" to="70498603"/>
    <trip id="veh171" type="veh_passenger" depart="28.81" departLane="best" from="940018408" to="-70498615"/>
    <trip id="veh172" type="veh_passenger" depart="28.98" departLane="best" departSpeed="max" from="286619578#0" to="142700934"/>
    <trip id="veh176" type="veh_passenger" depart="29.65" departLane="best" from="939988980" to="-547454906#0"/>
    <trip id="veh177" type="veh_passenger" depart="29.82" departLane="best" from="-252981880#5" to="168656082#0"/>
    <trip id="veh178" type="veh_passenger" depart="29.99" departLane="best" from="308973186#5" to="-967448539#0"/>
    <trip id="veh179" type="veh_passenger" depart="30.16" departLane="best" from="259325306#2" to="259382543#1"/>
    <trip id="veh181" type="veh_passenger" depart="30.50" departLane="best" departSpeed="max" from="-309001826" to="363298217"/>
    <trip id="veh182" type="veh_passenger" depart="30.67" departLane="best" departSpeed="max" from="-105917017#1" to="877437013"/>
    <trip id="veh184" type="veh_passenger" depart="31.00" departLane="best" departSpeed="max" from="322544418" to="308965363#2"/>
    <trip id="veh185" type="veh_passenger" depart="31.17" departLane="best" departSpeed="max" from="-683394653" to="-169922986#0"/>
    <trip id="veh186" type="veh_passenger" depart="31.34" departLane="best" from="293065538#1" to="105922677#4"/>
    <trip id="veh187" type="veh_passenger" depart="31.51" departLane="best" departSpeed="max" from="-417924289#1" to="640294088#2"/>
    <trip id="veh189" type="veh_passenger" depart="31.84" departLane="best" departSpeed="max" from="-417919666" to="153713991#1-AddedOffRampEdge"/>
    <trip id="veh190" type="veh_passenger" depart="32.01" departLane="best" from="-845096028" to="-838521152"/>
    <trip id="veh191" type="veh_passenger" depart="32.18" departLane="best" from="-259579883" to="167693600#6"/>
    <trip id="veh192" type="veh_passenger" depart="32.35" departLane="best" from="937282399#1" to="308973285#0"/>
    <trip id="veh193" type="veh_passenger" depart="32.52" departLane="best" departSpeed="max" from="835132646" to="301593567#2"/>
    <trip id="veh194" type="veh_passenger" depart="32.69" departLane="best" from="-386626726#0" to="286524901#3"/>
    <trip id="veh196" type="veh_passenger" depart="33.02" departLane="best" from="105917017#0" to="292986733#1"/>
    <trip id="veh197" type="veh_passenger" depart="33.19" departLane="best" from="288867966" to="193125288#2"/>
    <trip id="veh200" type="veh_passenger" depart="33.70" departLane="best" from="436176957#0" to="-304865455"/>
    <trip id="veh201" type="veh_passenger" depart="33.87" departLane="best" from="-169928600#1" to="259481781#1"/>
    <trip id="veh202" type="veh_passenger" depart="34.04" departLane="best" from="286525098#1" to="111047042#1"/>
    <trip id="veh203" type="veh_passenger" depart="34.20" departLane="best" from="486009610#0" to="417923385"/>
    <trip id="veh204" type="veh_passenger" depart="34.37" departLane="best" from="294274684" to="-380516103"/>
    <trip id="veh205" type="veh_passenger" depart="34.54" departLane="best" from="-301586667#0" to="-128807609"/>
    <trip id="veh206" type="veh_passenger" depart="34.71" departLane="best" from="-308965307#1" to="232275969"/>
    <trip id="veh207" type="veh_passenger" depart="34.88" departLane="best" from="575383607" to="-169924270#6"/>
    <trip id="veh208" type="veh_passenger" depart="35.05" departLane="best" from="-936868343" to="304323582#3"/>
    <trip id="veh210" type="veh_passenger" depart="35.38" departLane="best" departSpeed="max" from="142719039#0" to="-417920548#1"/>
    <trip id="veh211" type="veh_passenger" depart="35.55" departLane="best" from="292771162#1-AddedOnRampEdge" to="-105922682#1"/>
    <trip id="veh213" type="veh_passenger" depart="35.89" departLane="best" from="-252952901#2" to="168640376#3"/>
    <trip id="veh214" type="veh_passenger" depart="36.06" departLane="best" from="-292987705#1" to="939982938"/>
    <trip id="veh216" type="veh_passenger" depart="36.39" departLane="best" departSpeed="max" from="-308968190" to="640294088#2"/>
    <trip id="veh217" type="veh_passenger" depart="36.56" departLane="best" from="126999696#4" to="512416892"/>
    <trip id="veh218" type="veh_passenger" depart="36.73" departLane="best" from="294270214#0" to="967510405"/>
    <trip id="veh219" type="veh_passenger" depart="36.90" departLane="best" from="252952242#3" to="939531673-AddedOnRampEdge"/>
    <trip id="veh220" type="veh_passenger" depart="37.07" departLane="best" from="803560621#1" to="301575436#0"/>
    <trip id="veh222" type="veh_passenger" depart="37.41" departLane="best" from="489458906#2-AddedOnRampEdge" to="286524901#3"/>
    <trip id="veh224" type="veh_passenger" depart="37.74" departLane="best" from="128650250-AddedOffRampEdge" to="-489099752#4"/>
    <trip id="veh225" type="veh_passenger" depart="37.91" departLane="best" from="-308966757#0" to="304834598"/>
    <trip id="veh226" type="veh_passenger" depart="38.08" departLane="best" departSpeed="max" from="380516103" to="259579872"/>
    <trip id="veh229" type="veh_passenger" depart="38.58" departLane="best" from="-358399428#2" to="-971673504#3"/>
    <trip id="veh230" type="veh_passenger" depart="38.75" departLane="best" departSpeed="max" from="169773722#0" to="-286619628#0"/>
    <trip id="veh231" type="veh_passenger" depart="38.92" departLane="best" departSpeed="max" from="-308075106" to="31947190#6"/>
    <trip id="veh232" type="veh_passenger" depart="39.09" departLane="best" departSpeed="max" from="305654802" to="-169922702"/>
    <trip id="veh234" type="veh_passenger" depart="39.43" departLane="best" departSpeed="max" from="-964204492#1" to="-358399421#0"/>
    <trip id="veh235" type="veh_passenger" depart="39.60" departLane="best" departSpeed="max" from="-967453317" to="838499500#0"/>
    <trip id="veh236" type="veh_passenger" depart="39.76" departLane="best" from="247889355#1" to="322544293#1"/>
    <trip id="veh237" type="veh_passenger" depart="39.93" departLane="best" from="619762715" to="4626679#2"/>
    <trip id="veh239" type="veh_passenger" depart="40.27" departLane="best" departSpeed="max" from="-640139172" to="419266369#1"/>
    <trip id="veh240" type="veh_passenger" depart="40.44" departLane="best" from="605055472" to="939972817"/>
    <trip id="veh241" type="veh_passenger" depart="40.61" departLane="best" departSpeed="max" from="-967009653" to="417919669#1"/>
    <trip id="veh242" type="veh_passenger" depart="40.78" departLane="best" departSpeed="max" from="169922970#0" to="296351014#1"/>
    <trip id="veh243" type="veh_passenger" depart="40.94" departLane="best" from="-305654624#3" to="-380513248#1"/>
    <trip id="veh244" type="veh_passenger" depart="41.11" departLane="best" from="111047023" to="-128807645#0"/>
    <trip id="veh245" type="veh_passenger" depart="41.28" departLane="best" departSpeed="max" from="-522312091" to="308999710"/>
    <trip id="veh247" type="veh_passenger" depart="41.62" departLane="best" from="127012717#3" to="-286619489#1"/>
    <trip id="veh249" type="veh_passenger" depart="41.95" departLane="best" from="-838499494#0" to="286619677"/>
    <trip id="veh250" type="veh_passenger" depart="42.12" departLane="best" from="-127011611#1" to="304920139#3"/>
    <trip id="veh252" type="veh_passenger" depart="42.46" departLane="best" departSpeed="max" from="-167142065#3" to="128650251#2"/>
    <trip id="veh254" type="veh_passenger" depart="42.80" departLane="best" from="380513248#2" to="128650251#2"/>
    <trip id="veh255" type="veh_passenger" depart="42.97" departLane="best" from="363297676#3" to="619825349-AddedOffRampEdge"/>
    <trip id="veh256" type="veh_passenger" depart="43.13" departLane="best" departSpeed="max" from="-308973394#2" to="-246719255#1"/>
    <trip id="veh258" type="veh_passenger" depart="43.47" departLane="best" from="990867712" to="124281333"/>
    <trip id="veh260" type="veh_passenger" depart="43.81" departLane="best" from="286831732" to="420580244#6"/>
    <trip id="veh261" type="veh_passenger" depart="43.98" departLane="best" departSpeed="max" from="939540487" to="-309095132"/>
    <trip id="veh262" type="veh_passenger" depart="44.14" departLane="best" from="-126999705#3" to="-294272971#3"/>
    <trip id="veh263" type="veh_passenger" depart="44.31" departLane="best" from="-259579879#2" to="308958727#1"/>
    <trip id="veh264" type="veh_passenger" depart="44.48" departLane="best" from="203508042-AddedOnRampEdge" to="-380510660#1"/>
    <trip id="veh265" type="veh_passenger" depart="44.65" departLane="best" departSpeed="max" from="304750654#0" to="4626684#7"/>
    <trip id="veh266" type="veh_passenger" depart="44.82" departLane="best" from="-287655735" to="296351045"/>
    <trip id="veh267" type="veh_passenger" depart="44.99" departLane="best" from="358399428#4" to="-265057718"/>
    <trip id="veh268" type="veh_passenger" depart="45.16" departLane="best" from="486009612#1" to="939988981"/>
    <trip id="veh269" type="veh_passenger" depart="45.32" departLane="best" from="-252981880#2" to="-128807617#0"/>
    <trip id="veh270" type="veh_passenger" depart="45.49" departLane="best" from="-417922478#0" to="308973285#1"/>
    <trip id="veh271" type="veh_passenger" depart="45.66" departLane="best" from="939982938" to="142700903#1-AddedOnRampEdge"/>
    <trip id="veh272" type="veh_passenger" depart="45.83" departLane="best" departSpeed="max" from="308081689" to="-169928640#7"/>
    <trip id="veh273" type="veh_passenger" depart="46.00" departLane="best" from="302015099#1" to="302773403"/>
    <trip id="veh274" type="veh_passenger" depart="46.17" departLane="best" departSpeed="max" from="-247891920#1" to="46464349#5"/>
    <trip id="veh275" type="veh_passenger" depart="46.34" departLane="best" from="605054660" to="296112617#3"/>
    <trip id="veh276" type="veh_passenger" depart="46.50" departLane="best" from="-259520826#1" to="966998230"/>
    <trip id="veh279" type="veh_passenger" depart="47.01" departLane="best" departSpeed="max" from="167141360" to="111051593"/>
    <trip id="veh280" type="veh_passenger" depart="47.18" departLane="best" from="575383607" to="605055473"/>
    <trip id="veh281" type="veh_passenger" depart="47.35" departLane="best" departSpeed="max" from="-252952898#1" to="939982940"/>
    <trip id="veh282" type="veh_passenger" depart="47.51" departLane="best" from="286619494#2" to="619763204#4"/>
    <trip id="veh283" type="veh_passenger" depart="47.68" departLane="best" departSpeed="max" from="305660672" to="168656094#1"/>
    <trip id="veh284" type="veh_passenger" depart="47.85" departLane="best" from="310456288#1" to="940005792"/>
    <trip id="veh285" type="veh_passenger" depart="48.02" departLane="best" from="-358399424#1" to="537449871#0"/>
    <trip id="veh286" type="veh_passenger" depart="48.19" departLane="best" from="169339091" to="247553152#1"/>
    <trip id="veh287" type="veh_passenger" depart="48.36" departLane="best" from="111047019" to="380516119#2"/>
    <trip id="veh288" type="veh_passenger" depart="48.53" departLane="best" from="-358399421#2" to="640313304"/>
    <trip id="veh289" type="veh_passenger" depart="48.69" departLane="best" from="489458906#2-AddedOnRampEdge" to="-247885989"/>
    <trip id="veh290" type="veh_passenger" depart="48.86" departLane="best" from="721639436#1" to="-417920548#0"/>
    <trip id="veh291" type="veh_passenger" depart="49.03" departLane="best" from="127011628" to="296433774"/>
    <trip id="veh292" type="veh_passenger" depart="49.20" departLane="best" departSpeed="max" from="-823717548" to="-128807644#1"/>
    <trip id="veh293" type="veh_passenger" depart="49.37" departLane="best" departSpeed="max" from="605054661" to="-308076076#0"/>
    <trip id="veh294" type="veh_passenger" depart="49.54" departLane="best" from="-304750654#1" to="489458914#5"/>
    <trip id="veh295" type="veh_passenger" depart="49.71" departLane="best" departSpeed="max" from="-545136600" to="803560621#0"/>
    <trip id="veh296" type="veh_passenger" depart="49.87" departLane="best" from="304865455" to="-676942165"/>
    <trip id="veh298" type="veh_passenger" depart="50.21" departLane="best" from="-169928639#2" to="380513271#2"/>
    <trip id="veh299" type="veh_passenger" depart="50.38" departLane="best" departSpeed="max" from="142599103" to="436181427#2"/>
    <trip id="veh300" type="veh_passenger" depart="50.55" departLane="best" from="302015099#1" to="305660261#0"/>