<?xml version="1.0" encoding="UTF-8"?>

<!-- generated on 2021-10-13 23:02:42 by Eclipse SUMO polyconvert Version 1.10.0
<configuration xmlns:xsi="http://www.w3.org/2001/XMLSchema-instance" xsi:noNamespaceSchemaLocation="http://sumo.dlr.de/xsd/polyconvertConfiguration.xsd">

    <input>
        <net-file value="osm.net.xml"/>
        <osm-files value="osm_bbox.osm.xml"/>
        <osm.keep-full-type value="true"/>
        <type-file value="/usr/share/sumo/data/typemap/osmPolyconvert.typ.xml"/>
    </input>

    <output>
        <output-file value="osm.poly.xml"/>
    </output>

    <processing>
        <poi-layer-offset value="5"/>
    </processing>

    <report>
        <verbose value="true"/>
    </report>

</configuration>
-->

<additional xmlns:xsi="http://www.w3.org/2001/XMLSchema-instance" xsi:noNamespaceSchemaLocation="http://sumo.dlr.de/xsd/additional_file.xsd">
    <location netOffset="-335098.67,2648758.09" convBoundary="-255583.09,-10448.97,35016.27,36208.10" origBoundary="-49.130141,-24.037724,-46.274124,-23.615815" projParameter="+proj=utm +zone=23 +ellps=WGS84 +datum=WGS84 +units=m +no_defs"/>

    <poly id="111009067" type="natural.wetland" color="181,209,209" fill="0" layer="-4.00" shape="19841.836413,1406.777871 19841.617237,1428.493214 19834.503225,1483.806160 19814.332976,1534.646015 19780.061844,1575.575565 19737.166840,1605.553631 19702.884472,1647.557154 19697.045379,1684.432421 19705.262477,1736.644218 19718.936322,1787.825794 19732.598536,1841.177878 19753.971023,1888.095851 19773.122304,1938.247328 19782.439888,1989.395900 19786.455926,2024.188943 19783.741270,2076.290291 19760.336298,2122.756149 19720.662483,2158.204462 19672.420170,2176.178792 19614.673066,2162.560372 19578.529780,2171.974065"/>
    <poly id="111009096" type="natural.wood" color="140,196,107" fill="0" layer="-4.00" shape="16665.186228,3268.023897 16652.562397,3273.874217 16641.671736,3271.591291 16629.316722,3251.363058 16611.045028,3222.391117 16585.016201,3204.203604 16568.008483,3211.625573 16563.889570,3239.824006 16546.034098,3277.117203 16528.207540,3310.612000 16497.772943,3349.392315"/>
    <poly id="111009133" type="natural.water" color="181,209,209" fill="1" layer="-4.00" shape="18039.988438,3522.682440 18066.413128,3502.308782 18083.982110,3492.709068 18095.115976,3472.190365 18104.004814,3458.160722 18125.963141,3446.435095 18136.831064,3451.972630 18112.650672,3466.942661 18102.694824,3478.779687 18114.640855,3485.424644 18187.092182,3450.314693 18199.447180,3417.858680 18209.381772,3407.095632 18211.293597,3434.270503 18203.382482,3460.259870 18195.559997,3477.556432 18171.502512,3479.481715 18151.711662,3492.314853 18079.271110,3526.339424 18062.835790,3531.598314 18039.988438,3522.682440"/>
    <poly id="111009139" type="natural.wetland" color="181,209,209" fill="0" layer="-4.00" shape="18516.312335,4751.198957 18499.674873,4721.161118 18472.822504,4676.345277 18466.398558,4663.244928 18467.719164,4641.529692 18484.509183,4601.510225 18489.064606,4583.094951 18501.387545,4552.797957 18520.333155,4516.056363 18544.591052,4494.585491 18526.010122,4495.481836 18500.695959,4513.685955 18485.094797,4543.949595 18446.158161,4613.069664 18415.187649,4650.774114 18370.224518,4667.703768 18310.123508,4670.347711 18273.006225,4666.713621 18249.062129,4658.318626 18225.173359,4644.497517 18191.516304,4624.053751 18221.494738,4629.797031 18269.469197,4640.109220 18289.641176,4642.972672 18297.909590,4634.916949 18270.696995,4626.532991 18230.940374,4614.133902 18197.200305,4601.840329 18172.272106,4583.124552 18166.937832,4570.035159 18187.272640,4503.982117 18205.273595,4453.110925 18217.685662,4414.121351 18230.953517,4399.050925 18235.464981,4384.976572 18244.388235,4366.605872 18273.002940,4346.254097 18334.445538,4319.724708 18389.641232,4262.709087 18404.086491,4238.967889 18415.220498,4218.437877 18422.054125,4190.266793 18422.319487,4164.199496 18417.128044,4138.076647 18395.590174,4107.434980 18374.368391,4085.755981 18286.383182,4026.362748 18239.741693,3988.366053 18209.597206,3948.112021 18188.379331,3907.129409 18161.429158,3870.163812 18150.187018,3831.409228 18151.595119,3795.175825 18171.497760,3766.429343 18199.314643,3751.330152 18223.551095,3744.877034 18225.730185,3758.831325 18219.825344,3793.745279 18223.335820,3842.886644 18227.373039,3803.412990 18234.885844,3776.555717 18236.127172,3748.671002 18262.156025,3732.180194 18281.390964,3736.950125 18322.730108,3753.673449 18393.495636,3777.197237 18447.771325,3810.342905 18517.503211,3828.428895 18564.321742,3843.025511 18673.006320,3897.355869 18804.407660,3973.644704 18873.231013,4002.107778 18894.392526,4040.818351 18892.451762,4077.555734 18906.427572,4038.769825 18902.467905,3998.539397 18950.619037,3989.248924 18968.286170,3970.966534 19020.232054,3911.745097 19038.374283,3904.830131 19123.851647,3941.622913 19048.398397,3899.261489 19039.364083,3890.553752 19035.342906,3869.415603 19047.919944,3837.991178 19114.729446,3696.424397 19224.016230,3500.323674 19296.902727,3383.702667 19316.376355,3343.742792 19320.684682,3311.381726 19325.929867,3292.076177 19348.532763,3273.865491 19399.679424,3263.064601 19417.798917,3258.297480 19431.884642,3246.689658 19455.195826,3269.163458 19477.589752,3279.656161 19519.569751,3270.224031 19543.172122,3310.242983 19570.532225,3315.923917 19601.690929,3305.374404 19628.849055,3284.684277 19656.270108,3265.170679 19719.462732,3249.107993 19758.889894,3243.425890 19799.697495,3240.171894 19837.038811,3220.226459 19859.108802,3192.186373 19861.102846,3168.096837 19867.219875,3152.111266 19887.318090,3154.019426 19908.877909,3169.497735 19917.056516,3186.336214 19921.298001,3208.949222 19924.971282,3234.402701 19924.653734,3265.907040 19925.033350,3282.788718 19935.281277,3295.339976 19947.408077,3318.453279 19982.594646,3330.480570 20013.945878,3365.471292 20031.829681,3387.125264 20043.203079,3421.383103 20044.147614,3439.809838 20032.907238,3471.193082 20008.740778,3483.984601 19963.932436,3515.428332 19957.082136,3537.497637 19956.561754,3555.798874 19962.826430,3579.727975 19957.298215,3602.951295 19949.444916,3623.515407 19936.176713,3638.875214 19918.716691,3644.856792 19895.138005,3640.709772 19883.712838,3653.009345 19875.567528,3678.288303 19877.015928,3689.133964 19893.289148,3711.004420 19886.786326,3691.513844 19887.998756,3680.318467 19894.894644,3648.692179 19923.497360,3658.438257 19937.093060,3657.058032 19951.381940,3648.519448 19970.127025,3602.903354 19979.841158,3571.449400 19991.518461,3567.458323 19981.748460,3544.833962 19978.117746,3525.239464 19994.002987,3509.817391 20015.407593,3505.392697 20031.664736,3486.397204 20052.522937,3458.377849 20060.647642,3428.026392 20057.643079,3400.840978 20049.531078,3370.281720 20047.031047,3352.647772 20016.331837,3328.727318 19976.645851,3305.524701 19958.953871,3284.049775 19950.721996,3266.424488 19951.697969,3245.348085 19956.991166,3226.242187 19966.086663,3209.688561 19974.906308,3177.062754 19955.952177,3066.678421 19954.049065,3036.303467 19962.515687,3011.426403 19979.121086,2997.229846 19995.098723,2993.802635 20012.070869,2995.745585 20027.263244,3005.589000 20022.781020,2989.684870 20010.231103,2978.273313 19977.680320,2959.361977 19967.168445,2939.687034 19954.199230,2918.370407"/>
    <poly id="111178244" type="waterway.stream" color="181,209,209" fill="0" layer="-4.00" shape="17885.135195,4451.992447 17926.598208,4456.757291 17985.674725,4448.677896 18016.524065,4422.922771 18021.529676,4387.390590 18035.084383,4324.280856"/>
    <poly id="111178246" type="waterway.stream" color="181,209,209" fill="0" layer="-4.00" shape="16582.530375,2811.452017 16612.986103,2824.801219 16665.401639,2825.341608 16707.105889,2806.224291 16735.731200,2784.790363 16749.100938,2758.868951 16771.080832,2746.060264 16788.358051,2765.785357 16818.758964,2783.474900 16855.827413,2790.379653 16857.715175,2818.639978 16870.580805,2842.660887 16892.304573,2853.748920 16912.195338,2832.235829 16930.133228,2786.792007 16934.813208,2756.428607 16965.392998,2756.743224 17026.473361,2766.065207 17072.343061,2766.536814 17098.667423,2755.942975 17101.113796,2729.897926 17083.846397,2710.173332 17047.045995,2677.212789 17042.946969,2651.100441 17049.782801,2622.929855 17091.664502,2586.436872 17214.287129,2453.923762"/>
    <poly id="111178248" type="waterway.stream" color="181,209,209" fill="0" layer="-4.00" shape="17536.143939,1837.234634 17493.975928,1901.966645 17460.741691,1947.243086 17462.618323,1977.673848 17475.362490,2012.557397 17479.328484,2051.692252 17487.537803,2103.916774 17482.814600,2138.621184 17482.591930,2160.336658 17456.179801,2179.623970 17375.445642,2170.102004 17342.711060,2167.595395 17304.684994,2168.833060 17135.236629,2146.714719"/>
    <poly id="111178251" type="waterway.stream" color="181,209,209" fill="0" layer="-4.00" shape="18275.182628,3715.745099 18317.432148,3683.084216 18328.449700,3673.960110 18343.200939,3674.110397 18387.963350,3686.593552 18833.548337,3786.002072 18872.754580,3797.264409 18910.046804,3782.437258 18943.181829,3745.839187 19004.729875,3709.529226 19059.314939,3712.253344"/>
    <poly id="111178253" type="waterway.stream" color="181,209,209" fill="0" layer="-4.00" shape="17180.367621,4373.076857 17145.473519,4366.206619 17143.517910,4344.457733 17143.830145,4314.049471 17128.917855,4276.961797 17070.309933,4239.425258 17037.649773,4228.225276 17038.073877,4186.953737 17036.297021,4147.830245 17030.321062,4091.287185 17000.207414,4045.349355 16949.966145,4044.832823 16864.831666,4037.445145"/>
    <poly id="111178257" type="waterway.stream" color="181,209,209" fill="0" layer="-4.00" shape="18500.695959,4513.685955 18511.891438,4480.110432 18518.658726,4458.450597 18545.272047,4419.616320 18600.157095,4394.104443 18637.507258,4372.755455 18668.453710,4338.306321 18669.027625,4281.830918 18906.427572,4038.769825"/>
    <poly id="111178263" type="waterway.stream" color="181,209,209" fill="0" layer="-4.00" shape="16073.179367,3901.097591 16121.151884,3910.276460 16151.442159,3938.841673 16170.876334,3960.760418 16207.835384,3978.529979 16245.019114,3974.561786 16268.162102,3952.872636"/>
    <poly id="111178264" type="waterway.stream" color="181,209,209" fill="0" layer="-4.00" shape="16621.942210,4286.952334 16657.139036,4263.415453 16692.492344,4224.674337 16711.971976,4224.498417 16749.156490,4238.292952 16794.986253,4243.106075 16819.045335,4241.183019"/>
    <poly id="111178266" type="natural.water" color="181,209,209" fill="1" layer="-4.00" shape="17880.327891,2998.575513 17922.230652,2959.898672 17964.088836,2925.562589 17990.257293,2930.182331 17981.157874,2964.842107 17948.199565,2984.052402 17880.327891,2998.575513"/>
    <poly id="111178267" type="waterway.stream" color="181,209,209" fill="0" layer="-4.00" shape="19221.391437,4056.149003 19221.426624,3993.344568 19208.536716,3977.266438 19168.482724,3955.143239 19125.448348,3943.809739 19069.907966,3915.715094 19004.089728,3887.106234"/>
    <poly id="111178268" type="waterway.stream" color="181,209,209" fill="0" layer="-4.00" shape="17147.771073,4142.452284 17095.362944,4139.743364 17036.297021,4147.830245"/>
    <poly id="111178270" type="waterway.stream" color="181,209,209" fill="0" layer="-4.00" shape="16635.035234,3652.719599 16654.492053,3672.467239 16680.639252,3679.259750 16778.851343,3688.953986 16837.401377,3730.832669 16865.625750,3748.510634 16887.495323,3746.553909 16900.776231,3729.314112 16901.066732,3701.076246 16897.123961,3659.759735 16880.024326,3622.649188 16884.928108,3570.559264 16927.438556,3473.238941 16941.064473,3423.420470 16937.725987,3370.869203 16930.926021,3344.042420 16923.838002,3290.788078 16929.964950,3225.675621 16977.595513,3161.001147 17030.368602,3127.865199 17118.122461,3091.843622 17251.767883,3055.196327 17398.211667,2951.875722"/>
    <poly id="111178272" type="waterway.stream" color="181,209,209" fill="0" layer="-4.00" shape="16656.042379,4369.866673 16688.904044,4361.511414 16704.575991,4324.738209 16713.736143,4283.556592 16711.971976,4224.498417 16708.838096,4119.498735"/>
    <poly id="111178273" type="waterway.stream" color="181,209,209" fill="0" layer="-4.00" shape="17698.229170,2221.198463 17654.183792,2255.500239 17623.338117,2281.254444 17596.659026,2326.598354 17583.090835,2372.076563 17582.667967,2413.348120 17534.566412,2417.196529 17473.430655,2414.399136 17470.952538,2442.614555 17453.217289,2468.502857 17418.082782,2485.518939 17250.723771,2555.001528"/>
    <poly id="111178276" type="waterway.stream" color="181,209,209" fill="0" layer="-4.00" shape="16714.649996,4407.393848 16688.904044,4361.511414"/>
    <poly id="111178278" type="waterway.stream" color="181,209,209" fill="0" layer="-4.00" shape="19189.522732,4938.094231 19052.963396,4830.150135"/>
    <poly id="111178279" type="waterway.stream" color="181,209,209" fill="0" layer="-4.00" shape="17705.460395,2581.868760 17635.601952,2576.812143 17554.608553,2593.358824 17493.004461,2636.173992 17446.934826,2655.248730 17287.614006,2668.476559"/>
    <poly id="111178280" type="waterway.river" color="181,209,209" fill="0" layer="-4.00" shape="17914.916773,4958.513904 17871.473288,4934.170825 17841.288467,4894.757399 17813.871102,4872.504872 17782.520831,4872.428109 17754.628007,4866.816007 17732.184249,4851.092910 17731.575342,4823.012093 17736.828795,4799.166413 17740.037322,4761.212689 17706.785538,4630.489124 17646.951889,4499.515603 17615.234723,4397.081366 17596.087004,4346.915867 17602.944517,4316.574655 17819.211983,4105.873881 17843.171568,4112.641832 17858.218645,4136.695016 17857.552680,4201.863364 17870.532216,4215.031026 17914.217548,4215.477340 17992.187063,4245.621772 18000.910926,4283.708421 18039.640440,4305.854619 18079.069322,4295.392615 18149.302905,4300.428217 18224.003670,4354.669925"/>
    <poly id="111178282" type="waterway.stream" color="181,209,209" fill="0" layer="-4.00" shape="16120.737749,3738.644746 16185.595432,3804.491001 16243.930074,3868.098848 16289.466788,3901.162637 16276.095171,3927.094761 16256.224430,3946.436631 16268.162102,3952.872636 16293.161115,3966.376413 16345.479003,3977.770067 16378.272686,3975.937953 16376.263220,3958.540744 16369.931232,3936.746488 16409.438006,3919.777819 16446.486897,3928.853917 16457.086698,3959.374858 16485.221565,3985.735333 16513.503159,3996.891477 16565.001297,4005.850467"/>
    <poly id="111178287" type="waterway.stream" color="181,209,209" fill="0" layer="-4.00" shape="16395.689312,4193.373342 16430.796631,4178.529844 16444.268029,4143.904851 16444.626670,4109.144562 16466.867573,4070.268685 16495.517920,4046.675747 16541.391793,4047.148833 16569.852780,4040.919180 16598.617763,4003.217867"/>
    <poly id="111178288" type="waterway.stream" color="181,209,209" fill="0" layer="-4.00" shape="17044.132167,4660.631021 17092.196828,4661.124736 17120.914150,4631.008180 17156.423057,4577.061834 17169.860509,4544.606582 17196.299439,4523.149166 17226.771484,4534.326282 17250.674957,4547.606605 17279.025090,4552.238768 17309.741634,4528.665443 17440.254832,4478.948486 17485.727851,4476.922536"/>
    <poly id="111178291" type="waterway.stream" color="181,209,209" fill="0" layer="-4.00" shape="17579.756000,4831.249046 17638.690900,4836.193479 17684.722611,4821.458688 17736.828795,4799.166413"/>
    <poly id="111178292" type="waterway.stream" color="181,209,209" fill="0" layer="-4.00" shape="16283.877890,3541.348683 16299.857130,3556.664190 16327.534818,3572.964345 16368.466694,3576.643047 16389.023555,3595.317097 16390.550595,3632.810225 16412.307860,3641.728591 16434.222062,3635.442748 16436.176544,3657.180735 16418.527739,3674.375054 16416.114712,3696.079041 16451.041542,3698.610166 16468.341867,3716.176216 16454.893362,3748.619708 16480.838992,3774.957635 16509.175226,3781.761959 16574.370666,3815.027584 16613.620463,3821.944207 16646.167465,3844.008503 16621.984851,3858.965064 16582.590402,3865.082087 16556.353263,3866.982255 16540.726216,3899.403355 16573.318053,3917.126927 16584.017899,3938.955028 16551.134725,3949.480445 16547.058750,3987.325509 16565.001297,4005.850467 16598.617763,4003.217867 16643.339907,3939.566437 16671.733430,3939.858991 16689.056791,3955.243227 16697.706535,4008.081843 16704.855137,4092.003162 16746.588954,4097.051155 16799.165712,4082.375588 16864.831666,4037.445145 16949.106394,3949.225975 17010.583610,3919.446529 17054.245878,3922.065939 17115.187216,3944.420867 17239.326291,3982.618921 17307.091817,3978.972905 17427.643344,3941.103873 17569.216535,3845.815840 17579.510329,3831.867317 17606.147477,3790.864241 17595.935741,3721.232025 17572.811953,3631.931590 17604.560378,3519.282535 17635.653114,3469.642400 17627.442122,3417.418115 17579.703326,3386.517819 17529.454284,3386.003086 17447.276157,3517.671150 17374.811335,3553.862704 17278.855710,3537.672581 17238.108990,3463.396325 17266.619428,3239.921984 17398.211667,2951.875722"/>
    <poly id="111178294" type="waterway.stream" color="181,209,209" fill="0" layer="-4.00" shape="17283.445031,1567.460989 17248.255596,1590.999077 17221.821929,1612.445302 17191.066050,1629.505721 17147.266609,1639.919985 17121.279341,1617.923944 17093.113760,1595.916525 17047.247800,1595.444788"/>
    <poly id="111178296" type="waterway.stream" color="181,209,209" fill="0" layer="-4.00" shape="18987.327953,4563.148666 18863.180177,4524.955141 18600.157095,4394.104443"/>
    <poly id="111178297" type="waterway.stream" color="181,209,209" fill="0" layer="-4.00" shape="16759.646876,3344.140000 16814.963444,3311.296768 16861.620073,3287.910732 16930.926021,3344.042420"/>
    <poly id="111415476" type="natural.water" color="181,209,209" fill="1" layer="-4.00" shape="6624.812733,21242.518010 6766.837704,21260.514741 6770.821909,21198.072417 6831.246191,21116.509888 6871.322149,21080.764521 6930.992593,21068.268865 6914.961469,21022.043823 6842.132323,21027.828361 6787.867443,20998.972762 6766.009472,20998.191601 6749.005173,21002.901256 6734.702968,21010.353785 6726.426973,21023.276729 6654.457330,21150.131863 6619.816434,21208.075199 6613.492494,21231.729049 6624.812733,21242.518010"/>
    <poly id="111415478" type="natural.water" color="181,209,209" fill="1" layer="-4.00" shape="6643.522510,20796.915379 6670.049934,20837.762155 6684.649716,20864.667979 6697.228687,20900.201393 6703.755773,20986.791489 6717.926392,20995.130675 6734.596977,20981.767747 6780.731044,20960.707903 6789.774294,20949.399195 6740.885127,20871.694310 6703.543043,20788.688465 6685.903017,20769.479899 6664.260816,20766.707394 6646.371626,20770.321890 6643.522510,20796.915379"/>
    <poly id="111415479" type="natural.water" color="181,209,209" fill="1" layer="-4.00" shape="7017.969564,21071.077226 7142.355201,21007.764192 7174.449335,20987.823932 7172.039096,20975.116715 7142.865814,20960.855636 7118.755645,20949.717420 7098.324064,20952.762120 7064.182339,20925.765782 7058.032737,20905.409216 7042.760847,20902.706676 7014.544281,20917.616493 7000.090668,20956.764572 6980.872100,20965.426329 6989.207103,21020.039894 7017.969564,21071.077226"/>
    <poly id="111468246" type="building.storage_tank" color="255,230,230" fill="1" layer="-1.00" shape="19220.518361,8615.349816 19227.449914,8615.774249 19234.122512,8617.635770 19240.261978,8620.854084 19245.574327,8625.293327 19249.827459,8630.740735 19252.820048,8636.961708 19254.442980,8643.667202 19254.607621,8650.557308 19253.317101,8657.321965 19250.719024,8663.464305 19246.925636,8668.963313 19242.102561,8673.554868 19236.424490,8677.085690 19230.147695,8679.392246 19223.527670,8680.388521 19216.839937,8680.021925 19210.369533,8678.306412 19204.390750,8675.311204 19199.146659,8671.171652 19194.849215,8666.078171 19191.690345,8660.187744 19189.809375,8653.822948 19189.268413,8646.884737 19190.224018,8640.005952 19192.611952,8633.496033 19196.348056,8627.619921 19201.246000,8622.674749 19207.089798,8618.868749 19213.622955,8616.387600 19220.518361,8615.349816"/>
    <poly id="111468246#1" type="man_made.storage_tank" color="255,230,230" fill="1" layer="-1.00" shape="19220.518361,8615.349816 19227.449914,8615.774249 19234.122512,8617.635770 19240.261978,8620.854084 19245.574327,8625.293327 19249.827459,8630.740735 19252.820048,8636.961708 19254.442980,8643.667202 19254.607621,8650.557308 19253.317101,8657.321965 19250.719024,8663.464305 19246.925636,8668.963313 19242.102561,8673.554868 19236.424490,8677.085690 19230.147695,8679.392246 19223.527670,8680.388521 19216.839937,8680.021925 19210.369533,8678.306412 19204.390750,8675.311204 19199.146659,8671.171652 19194.849215,8666.078171 19191.690345,8660.187744 19189.809375,8653.822948 19189.268413,8646.884737 19190.224018,8640.005952 19192.611952,8633.496033 19196.348056,8627.619921 19201.246000,8622.674749 19207.089798,8618.868749 19213.622955,8616.387600 19220.518361,8615.349816"/>
    <poly id="111468260" type="waterway.river" color="181,209,209" fill="0" layer="-4.00" shape="19435.505713,1960.904853 19475.036825,1939.587241 19505.944107,1907.317980 19507.196324,1783.514994 19488.617525,1676.887661 19519.743894,1622.903033 19563.736627,1582.072359 19627.398165,1550.134053 19663.036508,1520.016532 19687.790635,1499.158197 19709.670282,1471.614867 19712.524591,1444.012223 19684.201025,1423.215647 19647.878990,1410.212318 19667.373441,1382.977188"/>
    <poly id="111468262" type="building.storage_tank" color="255,230,230" fill="1" layer="-1.00" shape="18918.668704,8748.393110 18925.600322,8748.817686 18932.272952,8750.679345 18938.412417,8753.897788 18943.724732,8758.337143 18947.977798,8763.784643 18950.970293,8770.005683 18952.593107,8776.711217 18952.757610,8783.601332 18951.466939,8790.365969 18948.868710,8796.508262 18945.075171,8802.007197 18940.251952,8806.598658 18934.573749,8810.129367 18928.296842,8812.435797 18921.676727,8813.431938 18914.988931,8813.065204 18908.518494,8811.349558 18902.539709,8808.354224 18897.295646,8804.214562 18892.998260,8799.120987 18889.839476,8793.230491 18887.958615,8786.865650 18887.417788,8779.927422 18888.373543,8773.048650 18890.761633,8766.538774 18894.497896,8760.662733 18899.395991,8755.717656 18905.239928,8751.911773 18911.773204,8749.430755 18918.668704,8748.393110"/>
    <poly id="111468262#1" type="man_made.storage_tank" color="255,230,230" fill="1" layer="-1.00" shape="18918.668704,8748.393110 18925.600322,8748.817686 18932.272952,8750.679345 18938.412417,8753.897788 18943.724732,8758.337143 18947.977798,8763.784643 18950.970293,8770.005683 18952.593107,8776.711217 18952.757610,8783.601332 18951.466939,8790.365969 18948.868710,8796.508262 18945.075171,8802.007197 18940.251952,8806.598658 18934.573749,8810.129367 18928.296842,8812.435797 18921.676727,8813.431938 18914.988931,8813.065204 18908.518494,8811.349558 18902.539709,8808.354224 18897.295646,8804.214562 18892.998260,8799.120987 18889.839476,8793.230491 18887.958615,8786.865650 18887.417788,8779.927422 18888.373543,8773.048650 18890.761633,8766.538774 18894.497896,8760.662733 18899.395991,8755.717656 18905.239928,8751.911773 18911.773204,8749.430755 18918.668704,8748.393110"/>
    <poly id="11412813" type="natural.wood" color="140,196,107" fill="1" layer="-4.00" shape="13860.666753,15818.310977 13844.326177,15861.786198 13816.043754,15888.568698 13793.377254,15912.308879 13775.577791,15907.161354 13772.297820,15883.637355 13774.580691,15871.910815 13789.115959,15830.565312 13817.691413,15807.916840 13842.604172,15809.096316 13860.666753,15818.310977"/>
    <poly id="11414435" type="natural.wood" color="140,196,107" fill="1" layer="-4.00" shape="15136.381592,15723.412170 15166.557644,15728.985191 15195.411288,15753.039315 15218.669802,15768.319620 15211.860467,15796.113239 15181.753922,15809.401368 15153.065495,15811.695806 15120.706042,15790.628701 15108.601637,15763.934948 15114.718694,15740.032513 15136.381592,15723.412170"/>
    <poly id="11414450" type="natural.wetland" color="181,209,209" fill="1" layer="-4.00" shape="14940.455569,15576.279851 14931.370250,15592.587371 14914.864339,15592.416164 14907.375745,15583.478657 14912.424718,15570.230220 14922.711540,15566.781920 14934.283442,15569.116902 14940.455569,15576.279851"/>
    <poly id="11414533" type="natural.water" color="181,209,209" fill="0" layer="-4.00" shape="10166.094017,17956.328464 10148.743407,17979.588710 10099.170710,18033.857650 10023.552723,18070.448975 9938.452932,18093.028231 9884.414061,18075.050788 9848.916057,18040.747856 9803.070923,17992.412676 9757.246072,17946.968123 9718.295943,17975.190539 9686.612386,18002.471884 9713.002488,18070.611419 9711.270972,18153.212398 9707.554847,18177.559718 9691.958353,18198.722957 9668.657053,18208.440603 9654.314449,18208.663340 9638.985394,18202.031126 9612.911866,18186.091379 9565.141115,18138.665077 9542.537409,18126.118153 9525.762502,18128.861905 9532.915816,18145.141433 9562.796717,18209.918698 9559.732630,18223.818182 9562.027958,18251.164867 9569.265868,18259.570943 9571.950644,18269.622636 9566.633458,18294.030279 9574.384861,18314.425022 9585.847391,18311.912155 9607.648150,18310.030713 9644.227277,18310.068669 9888.277738,18342.409331 9910.813640,18341.354853 9939.711074,18338.242040 9958.689257,18333.439283 9975.837684,18322.470301 10022.654468,18290.621222 10046.298395,18268.868169 10066.233547,18261.295694 10081.759730,18259.999857 10110.547028,18263.353329 10154.689606,18251.842148 10211.341628,18239.013698 10266.921843,18233.006844 10288.564017,18213.502411 10367.536792,18206.349568 10416.673521,18207.206293 10434.289594,18211.580621 10448.990502,18212.158334 10801.032681,18186.284800 11027.093989,18166.783378 11074.728757,18161.253824 11078.951486,18154.232888 11050.101989,18150.991428 10976.568811,18126.874783 10962.006035,18129.610478 10949.415273,18119.420524 10942.575825,18107.984887 10932.405628,18079.115080 10925.741404,18070.372509 10916.763776,18063.532364 10923.630855,18064.701835 10930.361442,18060.498503 10931.967387,18056.118833 10945.449418,18009.337697 10949.064340,17984.723319 10946.124463,17977.493335 10947.768854,17970.456086 10952.746885,17963.332469 10965.100253,17962.289912 10973.237321,17941.788129 11017.843218,17854.892215 11027.039202,17807.633527 10996.001911,17852.057365 10955.316281,17894.241062 10924.222576,17939.140390 10921.405131,17947.228354 10933.767808,17954.890831 10929.619336,17961.635643 10923.909688,17970.468086 10913.337553,17975.560840 10858.677904,18015.867934 10857.533253,18030.530059 10852.517712,18031.595251 10842.537373,18028.000419 10832.529564,18028.901718 10818.879574,18034.936241"/>
    <poly id="11414552" type="natural.water" color="181,209,209" fill="1" layer="-4.00" shape="9678.073948,17983.242704 9753.040773,17926.633635 9740.381366,17883.006378 9726.489514,17864.982383 9723.750831,17837.143674 9710.123247,17767.867345 9695.227692,17688.543430 9694.044714,17636.345284 9653.728731,17643.742890 9616.852073,17656.393623 9596.586785,17670.086387 9619.507506,17734.711403 9618.565090,17822.548310 9619.440724,17904.324531 9639.854999,17958.478839 9678.073948,17983.242704"/>
    <poly id="11414603" type="natural.water" color="181,209,209" fill="0" layer="-4.00" shape="11603.856569,18109.897786 11655.609809,18096.524630 11686.489753,18071.622887 11735.982675,18024.303097 11759.012486,17996.715542 11736.010418,18000.492344 11707.453620,18002.360811 11677.597103,18002.808951 11636.340604,18016.293315 11548.402822,18038.685667 11476.168296,18075.696727 11444.214953,18068.181453 11394.998468,18090.285652 11337.830718,18119.249318 11230.694237,18168.137775 11153.384800,18188.625016 11069.992332,18195.513643 10873.117827,18215.270977"/>
    <poly id="120582566" type="waterway.river" color="181,209,209" fill="0" layer="-4.00" shape="18155.250997,4549.859582 18170.217525,4475.058122 18174.005197,4425.127362 18224.003670,4354.669925 18238.290332,4334.537633 18372.619087,4230.540759 18400.366080,4187.365901 18393.118538,4148.187107 18361.789464,4114.200781 18212.417579,3979.061557 18155.632535,3907.426705 18133.577279,3834.772649 18140.877390,3774.888239 18179.041020,3735.596557 18226.219535,3712.831675 18275.182628,3715.745099 18334.123938,3719.612775 18482.079140,3778.686029 18675.587280,3870.813759 18815.690163,3950.446917 18884.378668,3963.093837 18935.729800,3962.529570 18970.987889,3932.464908 19014.386854,3853.609886 19099.048842,3691.536569 19181.179282,3563.104399 19276.936962,3383.766342 19341.881045,3226.929903 19345.232829,3151.256936"/>
    <poly id="120582583" type="waterway.river" color="181,209,209" fill="0" layer="-4.00" shape="20582.750225,2723.199004 20367.864913,2964.695084 20064.953859,3307.743155 20021.596909,3347.784538 19969.134775,3316.390827 19943.746520,3285.768148 19935.376118,3251.584770 19929.534412,3168.543113 19909.604797,3099.413231 19869.658090,3051.666073 19861.037084,3041.357176 19617.697228,3125.793356 19345.232829,3151.256936"/>