<?xml version="1.0" encoding="UTF-8"?>

<!-- generated on 2021-11-05 01:16:11 by Eclipse SUMO netconvert Version 1.10.0
<configuration xmlns:xsi="http://www.w3.org/2001/XMLSchema-instance" xsi:noNamespaceSchemaLocation="http://sumo.dlr.de/xsd/netconvertConfiguration.xsd">

    <input>
        <osm-files value="osm_bbox.osm.xml"/>
    </input>

    <output>
        <plain-output-prefix value="osm"/>
    </output>

    <projection>
        <proj.utm value="true"/>
    </projection>

    <report>
        <aggregate-warnings value="5"/>
    </report>

</configuration>
-->

<nodes version="1.9" xmlns:xsi="http://www.w3.org/2001/XMLSchema-instance" xsi:noNamespaceSchemaLocation="http://sumo.dlr.de/xsd/nodes_file.xsd">
    <location netOffset="-335098.67,2648758.09" convBoundary="0.00,0.00,21336.65,22616.26" origBoundary="-46.618665,-23.960229,-46.409384,-23.726632" projParameter="+proj=utm +zone=23 +ellps=WGS84 +datum=WGS84 +units=m +no_defs"/>

    <node id="1028696664" x="7869.37" y="19845.28" type="priority"/>
    <node id="1028696672" x="7978.24" y="20857.43" type="priority"/>
    <node id="1028696683" x="7588.71" y="20501.54" type="priority"/>
    <node id="1028696734" x="8276.57" y="21198.32" type="priority"/>
    <node id="1028696779" x="7654.06" y="20551.20" type="priority"/>
    <node id="1028696831" x="7539.04" y="20465.00" type="priority"/>
    <node id="1028917358" x="8494.49" y="19847.69" type="priority"/>
    <node id="1028917360" x="8505.79" y="19826.07" type="priority"/>
    <node id="1028917361" x="8783.22" y="19978.54" type="priority"/>
    <node id="1028917364" x="8800.39" y="19959.36" type="priority"/>
    <node id="1070732857" x="11371.26" y="14461.31" type="right_before_left"/>
    <node id="1070732863" x="11395.52" y="13270.01" type="priority"/>
    <node id="1070732884" x="11477.96" y="13461.45" type="priority"/>
    <node id="1070732938" x="9849.15" y="13975.62" type="right_before_left"/>
    <node id="1070733013" x="11564.04" y="14724.41" type="priority"/>
    <node id="1070733058" x="11444.05" y="13463.27" type="priority"/>
    <node id="1070733096" x="11361.53" y="13496.23" type="priority"/>
    <node id="1070733130" x="11378.33" y="13436.67" type="priority"/>
    <node id="1070733142" x="11404.48" y="13176.65" type="priority"/>
    <node id="1070733178" x="11411.14" y="14041.21" type="priority"/>
    <node id="1070733200" x="9735.63" y="13487.30" type="right_before_left"/>
    <node id="1070733211" x="11158.01" y="14520.40" type="priority"/>
    <node id="1070733240" x="9851.93" y="14022.93" type="right_before_left"/>
    <node id="1070733276" x="11247.26" y="14659.20" type="priority"/>
    <node id="1070733311" x="9746.17" y="13856.69" type="right_before_left"/>
    <node id="1070733391" x="9448.24" y="12315.97" type="right_before_left"/>
    <node id="1070733415" x="11392.15" y="13461.09" type="right_before_left"/>
    <node id="1070733445" x="9402.07" y="11841.46" type="right_before_left"/>
    <node id="1070733482" x="11544.81" y="14509.50" type="right_before_left"/>
    <node id="1070733556" x="11266.62" y="14554.01" type="priority"/>
    <node id="1070733560" x="11366.62" y="13450.88" type="priority"/>
    <node id="1070733580" x="9718.29" y="13437.23" type="priority"/>
    <node id="1070733603" x="11258.30" y="14546.13" type="priority"/>
    <node id="1070733622" x="11468.55" y="13472.77" type="right_before_left"/>
    <node id="1070733626" x="11255.03" y="14661.18" type="priority"/>
    <node id="1070733677" x="9368.03" y="11653.61" type="priority"/>
    <node id="1070733679" x="11283.70" y="14588.51" type="priority"/>
    <node id="1070733720" x="11231.64" y="14579.20" type="priority"/>
    <node id="1070733723" x="11352.30" y="13456.86" type="priority"/>
    <node id="1070733783" x="11373.52" y="13480.59" type="priority"/>
    <node id="1070733838" x="11407.88" y="14950.48" type="priority"/>
    <node id="1070733846" x="9685.87" y="13872.86" type="right_before_left"/>
    <node id="1070733866" x="11372.31" y="14587.83" type="right_before_left"/>
    <node id="1070733877" x="9736.80" y="13705.93" type="priority"/>
    <node id="1070733905" x="11157.54" y="13377.00" type="priority"/>
    <node id="1070733914" x="9802.36" y="14015.12" type="right_before_left"/>
    <node id="1070733928" x="11385.35" y="13269.97" type="priority"/>
    <node id="1070733945" x="11202.73" y="14155.96" type="priority"/>
    <node id="1070734004" x="11395.00" y="13174.96" type="priority"/>
    <node id="1070734036" x="11098.55" y="13471.56" type="priority"/>
    <node id="1070744293" x="14495.19" y="12016.60" type="priority"/>
    <node id="1070909892" x="14061.06" y="18063.62" type="priority"/>
    <node id="1070909897" x="18468.67" y="19185.48" type="priority"/>
    <node id="1070909921" x="15743.27" y="19073.45" type="priority"/>
    <node id="1070910048" x="19652.92" y="19248.89" type="priority"/>
    <node id="1070910057" x="18329.88" y="19536.22" type="priority"/>
    <node id="1070910140" x="16594.47" y="19113.66" type="priority"/>
    <node id="1070910179" x="15334.67" y="18454.13" type="priority"/>
    <node id="1070910233" x="15627.90" y="19078.18" type="priority"/>
    <node id="1070910236" x="18380.56" y="18927.28" type="priority"/>
    <node id="1070910312" x="16707.82" y="19478.29" type="priority"/>
    <node id="1070910316" x="18410.55" y="19149.61" type="priority"/>
    <node id="1070910330" x="18605.49" y="19255.16" type="priority"/>
    <node id="1070910339" x="16396.65" y="19196.86" type="priority"/>
    <node id="1070910370" x="15603.07" y="18748.58" type="priority"/>
    <node id="1070910395" x="18749.37" y="18918.20" type="priority"/>
    <node id="1070910424" x="13638.80" y="18225.30" type="priority"/>
    <node id="1070910499" x="16705.83" y="19465.48" type="priority"/>
    <node id="1070921352" x="12872.49" y="18344.69" type="priority"/>
    <node id="1070921383" x="13596.79" y="18190.34" type="priority"/>
    <node id="1070921410" x="12291.76" y="18434.33" type="priority"/>
    <node id="1070921412" x="12919.66" y="18238.13" type="priority"/>
    <node id="1070921418" x="11278.87" y="18554.51" type="priority"/>
    <node id="1070921424" x="10587.26" y="18223.62" type="priority"/>
    <node id="1070921491" x="11785.68" y="18570.21" type="priority"/>
    <node id="1070921551" x="12250.01" y="18640.75" type="priority"/>
    <node id="1070921560" x="13177.79" y="18327.17" type="priority"/>
    <node id="1070941652" x="15193.20" y="14735.06" type="priority"/>
    <node id="1070941667" x="14213.11" y="14292.77" type="priority"/>
    <node id="1070941683" x="14686.07" y="14551.07" type="priority"/>
    <node id="1214770800" x="11508.12" y="12116.26" type="priority"/>
    <node id="1214770839" x="12279.57" y="9107.43" type="priority"/>
    <node id="1214770877" x="15442.46" y="8557.32" type="right_before_left"/>
    <node id="1214770885" x="11697.55" y="10147.98" type="priority"/>
    <node id="1214770902" x="15383.19" y="9003.31" type="right_before_left"/>
    <node id="1214770917" x="16107.69" y="8957.48" type="right_before_left"/>
    <node id="1214770941" x="11862.93" y="10139.68" type="right_before_left"/>
    <node id="1214770952" x="18739.27" y="11150.52" type="priority"/>
    <node id="1214770954" x="12881.79" y="8452.30" type="right_before_left"/>
    <node id="1214770992" x="11725.12" y="9960.67" type="priority"/>
    <node id="1214771002" x="15049.94" y="8004.07" type="right_before_left"/>
    <node id="1214771007" x="16313.92" y="8609.60" type="priority"/>
    <node id="1214771059" x="11849.26" y="10500.77" type="right_before_left"/>
    <node id="1214771125" x="16150.31" y="9042.52" type="right_before_left"/>
    <node id="1214771162" x="11634.01" y="12237.78" type="right_before_left"/>
    <node id="1214771201" x="11529.49" y="11912.70" type="priority"/>
    <node id="1214771284" x="12699.91" y="8493.90" type="priority"/>
    <node id="1214771292" x="16168.11" y="8913.96" type="priority"/>
    <node id="1214771440" x="11669.57" y="11869.65" type="right_before_left"/>
    <node id="1214771561" x="12039.93" y="10220.66" type="right_before_left"/>
    <node id="1214771610" x="16353.44" y="10131.88" type="priority"/>
    <node id="1214771615" x="16738.06" y="10324.11" type="priority"/>
    <node id="1214771635" x="16315.78" y="10120.50" type="priority"/>
    <node id="1214771640" x="19143.82" y="10916.61" type="priority"/>
    <node id="1214771721" x="11413.20" y="13085.79" type="priority"/>
    <node id="1214942382" x="10902.20" y="9381.33" type="priority"/>
    <node id="1214953086" x="10773.21" y="8771.41" type="priority"/>
    <node id="1214953122" x="12099.58" y="9028.32" type="priority"/>
    <node id="1214953124" x="11755.18" y="8966.87" type="right_before_left"/>
    <node id="1214953142" x="11297.13" y="8982.65" type="right_before_left"/>
    <node id="1219580183" x="15440.90" y="19370.26" type="priority"/>
    <node id="1219580237" x="15448.47" y="19204.09" type="priority"/>
    <node id="1219580264" x="15455.21" y="19055.20" type="priority"/>
    <node id="1219580288" x="11917.92" y="18939.42" type="priority"/>
    <node id="1219580308" x="11888.23" y="19056.15" type="priority"/>
    <node id="1219580339" x="11956.84" y="18761.29" type="priority"/>
    <node id="1219580341" x="14990.28" y="17859.75" type="right_before_left"/>
    <node id="1219580419" x="12842.14" y="18010.91" type="priority"/>
    <node id="1219580491" x="15590.56" y="19000.86" type="priority"/>
    <node id="1219580512" x="11450.79" y="18700.55" type="priority"/>
    <node id="1219580524" x="15519.73" y="19030.30" type="priority"/>
    <node id="1219580532" x="15452.83" y="19201.01" type="priority"/>
    <node id="1219580537" x="15578.21" y="19264.56" type="priority"/>
    <node id="1219580594" x="15601.75" y="18995.81" type="priority"/>
    <node id="1219580609" x="14989.03" y="17877.09" type="right_before_left"/>
    <node id="1219580617" x="15360.50" y="19551.57" type="priority"/>
    <node id="1219580677" x="15381.52" y="19163.71" type="priority"/>
    <node id="1219580683" x="15315.38" y="19303.56" type="priority"/>
    <node id="1219580690" x="15505.64" y="19405.49" type="priority"/>
    <node id="1219580692" x="15443.08" y="19526.30" type="priority"/>
    <node id="1219580704" x="15372.73" y="19008.27" type="priority"/>
    <node id="1219580711" x="13052.05" y="18456.47" type="right_before_left"/>
    <node id="1219580736" x="15504.08" y="18983.11" type="priority"/>
    <node id="1219580737" x="15512.15" y="19235.71" type="priority"/>
    <node id="1219580742" x="15436.58" y="19007.02" type="priority"/>
    <node id="1219580754" x="15286.82" y="19506.64" type="priority"/>
    <node id="1219580773" x="15616.48" y="19070.45" type="priority"/>
    <node id="1219580788" x="15363.44" y="19483.38" type="priority"/>
    <node id="1219580790" x="15497.37" y="19182.31" type="priority"/>
    <node id="1219580818" x="11915.78" y="18842.85" type="priority"/>
    <node id="1219580838" x="12786.58" y="18482.78" type="priority"/>
    <node id="1219580843" x="12131.85" y="19115.11" type="priority"/>
    <node id="1219580847" x="15569.96" y="19285.42" type="priority"/>
    <node id="1219580904" x="15320.16" y="19134.03" type="priority"/>
    <node id="1219580928" x="15350.56" y="17291.17" type="priority"/>
    <node id="1219580939" x="14984.73" y="17946.95" type="priority"/>
    <node id="1219580940" x="12359.16" y="18951.82" type="priority"/>
    <node id="1219580942" x="15320.35" y="18310.32" type="priority"/>
    <node id="1219580953" x="15622.36" y="19389.93" type="priority"/>
    <node id="1219581006" x="15383.54" y="19339.08" type="priority"/>
    <node id="1219581024" x="12957.50" y="18763.48" type="priority"/>
    <node id="1219581041" x="12995.20" y="18492.64" type="right_before_left"/>
    <node id="1219581044" x="15252.91" y="19426.48" type="priority"/>
    <node id="1219581049" x="15566.58" y="19444.00" type="priority"/>
    <node id="1219581056" x="15253.45" y="19268.69" type="priority"/>
    <node id="1219581062" x="15393.69" y="17294.34" type="right_before_left"/>
    <node id="1219581073" x="15540.00" y="19344.23" type="priority"/>
    <node id="1219581087" x="15126.81" y="17042.04" type="priority"/>
    <node id="1219581097" x="15320.93" y="19459.63" type="priority"/>
    <node id="1219652546" x="19241.62" y="18730.20" type="priority"/>
    <node id="1219652549" x="18463.10" y="18470.62" type="priority"/>
    <node id="1219652672" x="16168.38" y="19396.77" type="priority"/>
    <node id="1219652676" x="15739.21" y="19883.06" type="priority"/>
    <node id="1219652745" x="15846.41" y="19488.95" type="priority"/>
    <node id="1219652750" x="16095.27" y="19873.94" type="priority"/>
    <node id="1219652850" x="18316.55" y="18431.90" type="priority"/>
    <node id="1219652935" x="19060.42" y="18427.72" type="priority"/>
    <node id="1219652998" x="16180.75" y="19522.90" type="priority"/>
    <node id="1219653002" x="16537.95" y="18400.46" type="priority"/>
    <node id="1219653092" x="18503.77" y="18468.09" type="priority"/>
    <node id="1219653142" x="15711.48" y="19282.48" type="priority"/>
    <node id="1266038360" x="2387.83" y="20428.80" type="priority"/>
    <node id="1266038361" x="2360.92" y="20371.48" type="priority"/>
    <node id="1266038364" x="7745.18" y="20708.38" type="priority"/>
    <node id="1266038368" x="2412.46" y="20402.03" type="priority"/>
    <node id="1266038381" x="2494.44" y="20842.98" type="priority"/>
    <node id="1266038390" x="3153.80" y="20140.95" type="priority"/>
    <node id="1266038393" x="2281.53" y="21127.31" type="priority"/>
    <node id="1266038394" x="3039.59" y="19614.18" type="priority"/>
    <node id="1266038395" x="2816.25" y="20514.50" type="priority"/>
    <node id="1266038399" x="3136.50" y="20179.00" type="priority"/>
    <node id="1266038403" x="8022.84" y="20954.19" type="priority"/>
    <node id="1266038406" x="3183.13" y="20174.37" type="priority"/>
    <node id="1266038411" x="2738.08" y="20452.99" type="priority"/>
    <node id="1266038416" x="2711.24" y="19756.80" type="priority"/>
    <node id="1266038417" x="2359.39" y="20338.42" type="priority"/>
    <node id="1266038418" x="2397.34" y="20651.30" type="priority"/>
    <node id="1266038421" x="2439.67" y="20315.38" type="priority"/>
    <node id="1266038444" x="3648.48" y="19711.24" type="priority"/>
    <node id="1266038447" x="2246.68" y="19665.11" type="priority"/>
    <node id="1266038450" x="2785.10" y="19876.34" type="priority"/>
    <node id="1266038451" x="2783.29" y="20535.29" type="priority"/>
    <node id="1266038454" x="2547.08" y="20257.51" type="priority"/>
    <node id="1266038462" x="2428.91" y="20981.32" type="priority"/>
    <node id="1266038467" x="2445.12" y="20384.73" type="priority"/>
    <node id="1266038475" x="2391.03" y="20846.25" type="priority"/>
    <node id="1266038489" x="2801.52" y="20444.11" type="priority"/>
    <node id="1266038491" x="2411.60" y="20303.48" type="priority"/>
    <node id="1266038497" x="3227.19" y="20172.02" type="priority"/>
    <node id="1266038539" x="3294.25" y="19824.47" type="priority"/>
    <node id="1266038543" x="2485.68" y="20583.25" type="priority"/>
    <node id="1266038544" x="2592.03" y="20211.52" type="priority"/>
    <node id="1266038545" x="3147.69" y="20187.59" type="priority"/>
    <node id="1266038550" x="2786.18" y="19524.34" type="priority"/>
    <node id="1266038551" x="2185.89" y="21413.91" type="dead_end"/>
    <node id="1266038558" x="2821.98" y="20469.04" type="priority"/>
    <node id="1266038559" x="2383.68" y="20247.12" type="priority"/>
    <node id="1266038561" x="2698.21" y="19891.35" type="priority"/>
    <node id="1266038570" x="2558.25" y="20627.27" type="priority"/>
    <node id="1266038572" x="2705.50" y="20455.32" type="priority"/>
    <node id="1266038576" x="2725.23" y="20487.82" type="priority"/>
    <node id="1266038581" x="2456.85" y="20352.33" type="priority"/>
    <node id="1266097955" x="3636.49" y="20504.12" type="priority"/>
    <node id="1266097976" x="4309.59" y="20757.93" type="priority"/>
    <node id="1266097984" x="3240.91" y="20160.98" type="priority"/>
    <node id="1266097994" x="4399.35" y="20788.89" type="priority"/>
    <node id="1266098194" x="3672.05" y="20473.30" type="priority"/>
    <node id="1266098267" x="3869.16" y="20454.08" type="priority"/>
    <node id="1266098273" x="4456.84" y="20906.17" type="priority"/>
    <node id="1266098300" x="3252.41" y="20118.38" type="priority"/>
    <node id="1266098302" x="3685.79" y="20492.43" type="priority"/>
    <node id="1266098321" x="4290.40" y="20769.80" type="priority"/>
    <node id="1266098345" x="3270.76" y="20165.55" type="priority"/>
    <node id="1266098381" x="4384.82" y="20786.35" type="priority"/>
    <node id="1266098401" x="3801.40" y="20453.94" type="priority"/>
    <node id="1266098402" x="4915.22" y="21298.70" type="priority"/>
    <node id="1266098414" x="4552.40" y="21012.05" type="priority"/>
    <node id="1266098491" x="3631.70" y="20482.24" type="priority"/>
    <node id="1266104188" x="2434.12" y="18559.21" type="priority"/>
    <node id="1266104196" x="3063.03" y="19571.07" type="priority"/>
    <node id="1266104198" x="2631.99" y="18973.27" type="priority"/>
    <node id="1266104224" x="2866.73" y="19277.30" type="priority"/>
    <node id="1266148913" x="2116.30" y="19533.83" type="priority"/>
    <node id="1266148919" x="2761.25" y="19871.53" type="priority"/>
    <node id="1266148921" x="2462.77" y="19777.71" type="priority"/>
    <node id="1266148927" x="7876.20" y="19821.30" type="priority"/>
    <node id="1266148932" x="2486.57" y="19673.71" type="priority"/>
    <node id="1266148937" x="1900.30" y="19358.08" type="priority"/>
    <node id="1266148941" x="2726.00" y="19864.28" type="priority"/>
    <node id="1266148946" x="2395.32" y="18565.13" type="priority"/>
    <node id="1266148953" x="2653.60" y="20444.91" type="priority"/>
    <node id="1266148960" x="7413.26" y="19889.27" type="priority"/>
    <node id="1266148961" x="2769.04" y="19776.08" type="priority"/>
    <node id="1266148962" x="7914.77" y="19837.89" type="priority"/>
    <node id="1266148963" x="7167.52" y="19897.87" type="priority"/>
    <node id="1266148973" x="2734.48" y="19769.74" type="priority"/>
    <node id="1266148980" x="2521.63" y="20398.68" type="priority"/>
    <node id="1266148984" x="2614.33" y="19159.74" type="priority"/>
    <node id="1266148988" x="2191.61" y="19591.05" type="priority"/>
    <node id="1266148995" x="2710.27" y="19601.97" type="priority"/>
    <node id="1266148999" x="2656.86" y="20436.21" type="priority"/>
    <node id="1266149005" x="2206.26" y="19601.26" type="priority"/>
    <node id="1266149007" x="7282.13" y="19919.13" type="priority"/>
    <node id="1266149009" x="8141.83" y="19781.08" type="priority"/>
    <node id="1266149013" x="2794.70" y="19783.53" type="priority"/>
    <node id="1266149025" x="7261.86" y="19895.91" type="priority"/>
    <node id="1266149028" x="7386.94" y="19917.24" type="priority"/>
    <node id="1266149033" x="1996.75" y="19433.19" type="priority"/>
    <node id="1266149037" x="2703.26" y="19856.39" type="priority"/>
    <node id="1266149039" x="7202.25" y="19921.51" type="priority"/>
    <node id="1266149049" x="2356.25" y="19691.97" type="priority"/>
    <node id="1266149051" x="2525.17" y="20390.38" type="priority"/>
    <node id="1266149052" x="2523.84" y="19671.42" type="priority"/>
    <node id="1266164122" x="3181.93" y="19856.11" type="priority"/>
    <node id="1266164124" x="3014.66" y="19603.57" type="priority"/>
    <node id="1266164125" x="3209.70" y="19818.09" type="priority"/>
    <node id="1266164126" x="3045.03" y="19549.04" type="priority"/>
    <node id="1266164127" x="3209.89" y="19849.21" type="priority"/>
    <node id="1266164130" x="3206.69" y="19837.97" type="priority"/>
    <node id="1266164131" x="3177.62" y="19843.71" type="priority"/>
    <node id="1266164132" x="3204.62" y="19795.05" type="priority"/>
    <node id="1266164133" x="1915.43" y="22189.73" type="dead_end"/>
    <node id="1266169013" x="2449.20" y="19549.53" type="priority"/>
    <node id="1266177259" x="2705.27" y="19535.14" type="priority"/>
    <node id="1266177261" x="2792.52" y="19597.88" type="priority"/>
    <node id="1300847749" x="9812.59" y="18358.25" type="priority"/>
    <node id="1300847755" x="10271.21" y="18477.42" type="right_before_left"/>
    <node id="1300847756" x="10076.35" y="18433.40" type="right_before_left"/>
    <node id="1300847769" x="10055.81" y="18398.63" type="priority"/>
    <node id="1300847772" x="10362.44" y="18585.25" type="priority"/>
    <node id="1300847773" x="16545.09" y="19848.92" type="priority"/>
    <node id="1300847780" x="10145.98" y="18462.60" type="priority"/>
    <node id="1300847782" x="10127.61" y="18381.32" type="right_before_left"/>
    <node id="1300847784" x="10049.94" y="18423.04" type="priority"/>
    <node id="1300847785" x="10329.81" y="18621.75" type="priority"/>
    <node id="1300847809" x="16719.42" y="19688.00" type="priority"/>
    <node id="1300847830" x="16202.47" y="20203.19" type="priority"/>
    <node id="1300847840" x="18976.33" y="21348.23" type="priority"/>
    <node id="1300847845" x="9834.35" y="18362.46" type="priority"/>
    <node id="1300847848" x="10070.52" y="18467.05" type="priority"/>
    <node id="1300847854" x="9797.43" y="18629.64" type="priority"/>
    <node id="1300847872" x="18229.54" y="21329.55" type="priority"/>
    <node id="1300847921" x="9952.40" y="18564.89" type="right_before_left"/>
    <node id="1300847937" x="10321.27" y="18665.97" type="priority"/>
    <node id="1300847939" x="19346.15" y="21332.38" type="priority"/>
    <node id="1300847953" x="19667.54" y="20256.00" type="priority"/>
    <node id="1300847957" x="9809.91" y="18383.03" type="priority"/>
    <node id="1300847963" x="9909.12" y="18528.38" type="priority"/>
    <node id="1300847968" x="9838.30" y="18601.11" type="priority"/>
    <node id="1300847989" x="18760.63" y="21182.40" type="priority"/>
    <node id="1300848008" x="10357.96" y="18594.73" type="priority"/>
    <node id="1300848046" x="16124.90" y="20189.84" type="priority"/>
    <node id="1300848072" x="10366.59" y="18601.13" type="priority"/>
    <node id="1300848094" x="18053.68" y="21280.20" type="priority"/>
    <node id="1354252718" x="4169.33" y="20388.84" type="priority"/>
    <node id="1378100434" x="4472.17" y="20358.37" type="priority"/>
    <node id="1379105474" x="5566.43" y="21766.24" type="dead_end"/>
    <node id="1379414101" x="7037.39" y="21539.27" type="priority"/>
    <node id="1379414140" x="7154.03" y="21325.13" type="priority"/>
    <node id="1382516060" x="6724.38" y="21340.84" type="priority"/>
    <node id="1383616516" x="6837.30" y="21271.39" type="right_before_left"/>
    <node id="1383616528" x="6603.27" y="21255.93" type="priority"/>
    <node id="1383616538" x="7383.31" y="21248.78" type="priority"/>
    <node id="1383616542" x="7187.22" y="21252.56" type="right_before_left"/>
    <node id="1383616553" x="6939.43" y="21245.38" type="right_before_left"/>
    <node id="1383616555" x="7159.72" y="21242.13" type="right_before_left"/>
    <node id="1383616563" x="6897.22" y="21237.51" type="right_before_left"/>
    <node id="1383616581" x="6932.88" y="21219.13" type="right_before_left"/>
    <node id="1383616591" x="7112.78" y="21204.65" type="right_before_left"/>
    <node id="1383616626" x="7272.00" y="21162.40" type="right_before_left"/>
    <node id="1383616635" x="7087.13" y="21134.48" type="right_before_left"/>
    <node id="1383616637" x="7165.04" y="21129.49" type="right_before_left"/>
    <node id="1383616651" x="7141.81" y="21105.09" type="right_before_left"/>
    <node id="1383616654" x="6999.15" y="21097.63" type="right_before_left"/>
    <node id="1383616658" x="7176.33" y="21086.13" type="right_before_left"/>
    <node id="1383616661" x="7195.67" y="21078.97" type="right_before_left"/>
    <node id="1383616683" x="7198.10" y="21006.55" type="right_before_left"/>
    <node id="1383616688" x="7294.21" y="20996.69" type="right_before_left"/>
    <node id="1383616708" x="7293.28" y="20982.03" type="right_before_left"/>
    <node id="1383616710" x="7210.62" y="20976.68" type="right_before_left"/>
    <node id="1383616715" x="6956.82" y="20967.37" type="priority"/>
    <node id="1383616733" x="6988.65" y="20916.57" type="priority"/>
    <node id="1383616737" x="7287.48" y="20913.94" type="right_before_left"/>
    <node id="1383616838" x="7285.13" y="20859.82" type="right_before_left"/>
    <node id="1383616852" x="6955.09" y="20864.84" type="priority"/>
    <node id="1383616861" x="7243.55" y="20831.40" type="right_before_left"/>
    <node id="1383616904" x="7004.84" y="20812.16" type="right_before_left"/>
    <node id="1383616928" x="7263.94" y="20810.68" type="right_before_left"/>
    <node id="1383616932" x="7051.23" y="20802.93" type="right_before_left"/>
    <node id="1383616959" x="6998.40" y="20789.47" type="priority"/>
    <node id="1383616967" x="6941.10" y="20763.55" type="priority"/>
    <node id="1383616971" x="6775.53" y="20747.46" type="right_before_left"/>
    <node id="1383617035" x="6803.49" y="20735.11" type="right_before_left"/>
    <node id="1383617039" x="6760.22" y="20722.04" type="right_before_left"/>
    <node id="1383617048" x="6717.96" y="20693.87" type="right_before_left"/>
    <node id="1383617063" x="7137.84" y="20677.58" type="right_before_left"/>
    <node id="1383617064" x="6737.10" y="20677.93" type="right_before_left"/>
    <node id="1383617068" x="7083.64" y="20662.07" type="right_before_left"/>
    <node id="1383617094" x="6745.10" y="20637.99" type="right_before_left"/>
    <node id="1383617096" x="6473.11" y="20631.52" type="priority"/>
    <node id="1383617097" x="7099.71" y="20638.49" type="right_before_left"/>
    <node id="1383617098" x="6711.43" y="20628.52" type="right_before_left"/>
    <node id="1383617099" x="7070.39" y="20610.01" type="right_before_left"/>
    <node id="1383617104" x="6821.18" y="20595.45" type="right_before_left"/>
    <node id="1383617105" x="6797.99" y="20594.28" type="priority"/>
    <node id="1383617106" x="6693.97" y="20586.29" type="right_before_left"/>
    <node id="1383617112" x="6498.24" y="20577.87" type="right_before_left"/>
    <node id="1383617115" x="6846.76" y="20575.72" type="right_before_left"/>
    <node id="1383617119" x="6822.24" y="20574.46" type="right_before_left"/>
    <node id="1383617122" x="6694.82" y="20565.42" type="right_before_left"/>
    <node id="1383617123" x="6506.53" y="20555.95" type="right_before_left"/>
    <node id="1383624733" x="6509.22" y="21599.12" type="priority"/>
    <node id="1383624800" x="6487.23" y="21390.06" type="priority"/>
    <node id="1383624812" x="6552.61" y="21350.39" type="priority"/>
    <node id="1383624816" x="6577.53" y="21346.92" type="right_before_left"/>
    <node id="1383624837" x="6588.23" y="21261.87" type="priority"/>
    <node id="1383624847" x="6586.75" y="21247.44" type="priority"/>
    <node id="1383624848" x="6598.05" y="21245.45" type="priority"/>
    <node id="1383624868" x="6471.41" y="21126.62" type="right_before_left"/>
    <node id="1383624874" x="6457.17" y="21109.70" type="right_before_left"/>
    <node id="1383624880" x="6481.26" y="21107.25" type="right_before_left"/>
    <node id="1383624888" x="6681.55" y="21041.15" type="priority"/>
    <node id="1383624902" x="6718.37" y="21000.30" type="priority"/>
    <node id="1383624903" x="6694.13" y="20997.38" type="right_before_left"/>
    <node id="1383624911" x="6810.85" y="20972.42" type="right_before_left"/>
    <node id="1383624956" x="6608.60" y="20755.57" type="priority"/>
    <node id="1383624957" x="6600.33" y="20754.15" type="priority"/>
    <node id="1383624963" x="6617.49" y="20742.07" type="priority"/>
    <node id="1383624969" x="6608.46" y="20733.95" type="priority"/>
    <node id="1383624979" x="6414.18" y="20692.71" type="priority"/>
    <node id="1383624980" x="6400.54" y="20690.61" type="priority"/>
    <node id="1383624987" x="6411.14" y="20679.93" type="priority"/>
    <node id="1383624996" x="6621.01" y="20670.32" type="right_before_left"/>
    <node id="1383635363" x="6333.53" y="21580.33" type="priority"/>
    <node id="1383635371" x="6291.08" y="21505.64" type="priority"/>
    <node id="1383635382" x="6201.39" y="21436.14" type="priority"/>
    <node id="1383635389" x="6119.52" y="21377.90" type="priority"/>
    <node id="1383635398" x="6244.25" y="21314.80" type="priority"/>
    <node id="1383635399" x="6359.52" y="21303.96" type="priority"/>
    <node id="1383635400" x="6332.70" y="21306.54" type="priority">
        <param key="buffer_stop" value="true"/>
    </node>
    <node id="1383635402" x="6257.50" y="21281.15" type="priority"/>
    <node id="1383635404" x="6332.78" y="21267.79" type="priority">
        <param key="buffer_stop" value="true"/>
    </node>
    <node id="1383635406" x="6268.60" y="21247.40" type="priority"/>
    <node id="1383635410" x="6277.43" y="21209.66" type="priority"/>
    <node id="1383635413" x="6268.41" y="21152.24" type="priority"/>
    <node id="1383635415" x="6300.47" y="21144.89" type="priority"/>
    <node id="1383635416" x="6356.47" y="21133.42" type="priority">
        <param key="buffer_stop" value="true"/>
    </node>
    <node id="1383635418" x="6260.87" y="21109.32" type="priority"/>
    <node id="1383635419" x="6292.70" y="21102.05" type="priority"/>
    <node id="1383635420" x="6346.13" y="21091.29" type="priority">
        <param key="buffer_stop" value="true"/>
    </node>
    <node id="1383635421" x="6253.97" y="21077.30" type="priority"/>
    <node id="1383635422" x="6286.31" y="21069.10" type="priority"/>
    <node id="1383635425" x="6337.68" y="21057.62" type="priority">
        <param key="buffer_stop" value="true"/>
    </node>