<?xml version="1.0" encoding="UTF-8"?>

<!-- generated on 2021-11-05 01:16:11 by Eclipse SUMO netconvert Version 1.10.0
<configuration xmlns:xsi="http://www.w3.org/2001/XMLSchema-instance" xsi:noNamespaceSchemaLocation="http://sumo.dlr.de/xsd/netconvertConfiguration.xsd">

    <input>
        <osm-files value="osm_bbox.osm.xml"/>
    </input>

    <output>
        <plain-output-prefix value="osm"/>
    </output>

    <projection>
        <proj.utm value="true"/>
    </projection>

    <report>
        <aggregate-warnings value="5"/>
    </report>

</configuration>
-->

<edges version="1.9" xmlns:xsi="http://www.w3.org/2001/XMLSchema-instance" xsi:noNamespaceSchemaLocation="http://sumo.dlr.de/xsd/edges_file.xsd">
    <edge id="-105466454#0" from="6543048575" to="6544173984" priority="1" type="highway.service" numLanes="1" speed="5.56" shape="16148.33,9064.86 16144.08,9071.44 16137.83,9075.89 16131.07,9080.31 16118.35,9084.65 16087.18,9086.76 16069.25,9087.95 16057.62,9092.31 16052.49,9097.15 16050.97,9101.47 16055.82,9106.29 16064.67,9108.14 16086.41,9108.76" allow="pedestrian delivery bicycle"/>
    <edge id="-105466454#1" from="1214771125" to="6543048575" priority="1" type="highway.service" numLanes="1" speed="5.56" shape="16150.31,9042.52 16150.58,9056.74 16148.33,9064.86" allow="pedestrian delivery bicycle"/>
    <edge id="-105466454#2" from="1214770917" to="1214771125" priority="1" type="highway.service" numLanes="1" speed="5.56" shape="16107.69,8957.48 16128.61,8988.18 16141.46,9013.44 16150.31,9042.52" allow="pedestrian delivery bicycle"/>
    <edge id="-105466454#3" from="6543048571" to="1214770917" priority="1" type="highway.service" numLanes="1" speed="5.56" shape="16046.49,8927.29 16055.40,8923.17 16059.51,8922.26 16065.92,8923.41 16107.69,8957.48" allow="pedestrian delivery bicycle"/>
    <edge id="-105466456" from="1214771440" to="1214771201" priority="1" type="highway.track" numLanes="1" speed="5.56" shape="11669.57,11869.65 11647.88,11866.01 11633.07,11871.28 11603.77,11903.03 11586.67,11918.07 11551.20,11912.81 11529.49,11912.70" allow="pedestrian motorcycle moped bicycle"/>
    <edge id="-105466457" from="1214771615" to="7885307706" priority="4" type="highway.unclassified" numLanes="1" speed="13.89" shape="16738.06,10324.11 16761.10,10352.23 16767.03,10361.25 16770.22,10368.63 16772.66,10386.16 16771.34,10405.32 16762.42,10437.01 16761.78,10447.86 16765.75,10457.14 16800.77,10506.14 16836.94,10548.89 16864.50,10579.62 16865.50,10589.40 16868.95,10597.86 16885.72,10614.87 16897.66,10622.34 17007.84,10749.26 17020.33,10756.99 17035.74,10773.19 17064.56,10787.34 17082.92,10808.71 17097.81,10821.35 17124.30,10848.80 17135.58,10867.93 17148.93,10898.49 17142.69,10920.71 17116.29,10937.29 17107.19,10973.06 17123.87,10998.77 17152.09,11016.99 17169.78,11050.32 17184.97,11060.80 17189.68,11081.50 17253.41,11208.22 17296.32,11287.44 17319.67,11355.61 17338.16,11363.95 17348.25,11392.85 17381.82,11423.62 17404.24,11421.68 17424.40,11427.32 17442.26,11443.80 17479.97,11496.90 17535.84,11538.23 17556.92,11560.72 17572.14,11569.03 17617.62,11610.79 17682.76,11652.75 17698.46,11667.59 17729.22,11706.49 17746.08,11714.27 17782.84,11699.42 17798.15,11698.50 17822.09,11708.52 17852.37,11740.89 17864.12,11767.09 17861.80,11835.00 17871.71,11880.74 17871.89,11916.07 17892.32,11949.42 17921.50,11982.86 17951.99,12046.21 18064.55,12102.24 18091.30,12107.94 18122.01,12150.64 18222.17,12189.15 18248.37,12245.93 18317.43,12280.32 18359.40,12291.08 18391.89,12320.75 18423.02,12322.16 18448.79,12313.73 18462.83,12330.72" disallow="tram rail_urban rail rail_electric rail_fast ship"/>
    <edge id="-105466458" from="1214771059" to="1214770941" priority="1" type="highway.track" numLanes="1" speed="5.56" shape="11849.26,10500.77 11838.61,10475.28 11826.84,10451.24 11805.30,10421.13 11802.30,10395.02 11812.30,10276.12 11826.33,10190.42 11830.52,10155.69 11843.76,10144.41 11862.93,10139.68" allow="pedestrian motorcycle moped bicycle"/>
    <edge id="-105466459#0" from="1214771635" to="3056471651" priority="4" type="highway.unclassified" numLanes="1" speed="13.89" shape="16315.78,10120.50 16291.52,10124.90 16267.96,10128.18 16260.53,10131.37 16252.46,10132.31 16245.05,10131.77 16213.86,10122.36 16178.53,10107.26 16170.60,10105.43 16161.99,10108.74 16141.40,10135.40 16135.89,10138.88 16130.43,10139.36 16111.32,10136.72 16087.62,10130.50 16065.33,10120.22 16035.41,10106.86 15965.93,10098.73 15929.43,10091.65 15901.73,10087.55 15895.78,10082.20 15889.82,10077.79 15884.65,10075.43 15879.47,10074.42 15870.00,10075.19 15853.49,10077.13" disallow="tram rail_urban rail rail_electric rail_fast ship"/>
    <edge id="-105466459#1" from="1214771610" to="1214771635" priority="4" type="highway.unclassified" numLanes="1" speed="13.89" shape="16353.44,10131.88 16342.27,10128.92 16330.69,10125.53 16315.78,10120.50" disallow="tram rail_urban rail rail_electric rail_fast ship"/>
    <edge id="-105466459#2" from="1214771615" to="1214771610" priority="4" type="highway.unclassified" numLanes="1" speed="13.89" shape="16738.06,10324.11 16718.48,10315.76 16631.41,10279.54 16532.24,10236.86 16488.42,10221.19 16479.48,10215.25 16437.19,10170.77 16409.66,10151.88 16390.51,10139.86 16372.55,10134.52 16353.44,10131.88" disallow="tram rail_urban rail rail_electric rail_fast ship"/>
    <edge id="-105466459#3" from="1214770952" to="1214771615" priority="4" type="highway.unclassified" numLanes="1" speed="13.89" shape="18739.27,11150.52 18727.66,11162.90 18700.30,11167.52 18674.13,11161.27 18652.16,11171.92 18599.16,11171.39 18559.71,11181.31 18528.89,11202.73 18512.42,11213.42 18468.86,11223.32 18444.04,11220.34 18426.11,11209.29 18415.90,11193.15 18403.96,11183.26 18361.05,11157.55 18320.66,11099.00 18278.77,11080.64 18250.60,11003.20 18238.76,10985.15 18237.72,10926.46 18232.92,10914.45 18196.91,10908.64 18191.68,10885.23 18202.82,10865.23 18216.70,10843.10 18207.70,10814.75 18187.16,10792.81 18183.64,10762.89 18151.08,10739.73 18124.23,10693.82 18067.19,10661.72 18040.65,10638.08 18017.83,10625.36 17985.11,10617.96 17964.01,10598.19 17930.83,10583.17 17915.80,10556.94 17892.97,10544.76 17885.47,10530.01 17884.12,10501.74 17877.24,10478.85 17857.02,10453.03 17835.68,10428.97 17819.68,10417.06 17794.29,10402.62 17764.45,10375.40 17749.92,10372.88 17735.66,10377.96 17717.35,10377.78 17692.09,10364.21 17672.20,10358.84 17652.96,10342.35 17610.27,10317.19 17593.32,10310.77 17567.51,10309.97 17534.06,10321.03 17505.52,10333.77 17450.74,10348.96 17436.36,10353.02 17423.00,10354.59 17373.61,10349.41 17345.20,10355.50 17315.69,10355.20 17280.67,10360.28 17243.40,10370.09 17217.51,10368.14 17182.24,10367.82 17113.84,10366.55 17087.38,10361.66 17060.88,10362.47 17047.27,10367.67 17037.00,10372.55 17026.62,10372.72 17005.06,10370.86 16979.40,10368.97 16957.05,10362.49 16909.75,10352.66 16889.15,10350.93 16850.07,10351.89 16811.45,10347.31 16793.03,10345.59 16782.14,10342.22 16738.06,10324.11" disallow="tram rail_urban rail rail_electric rail_fast ship"/>
    <edge id="-105466459#4" from="1214771640" to="1214770952" priority="4" type="highway.unclassified" numLanes="1" speed="13.89" shape="19143.82,10916.61 19141.55,10870.41 19131.67,10875.19 19116.11,10900.57 19118.04,10926.68 19111.92,10935.86 19112.19,10963.57 19105.40,10986.87 19091.42,11018.79 19067.75,11036.48 19044.23,11037.87 19016.84,11045.20 18971.86,11061.59 18942.35,11061.83 18914.32,11077.31 18869.90,11093.16 18824.49,11099.22 18803.24,11091.94 18784.16,11088.48 18764.45,11092.09 18758.74,11115.40 18739.27,11150.52" disallow="tram rail_urban rail rail_electric rail_fast ship"/>
    <edge id="-105466461#0" from="1214771162" to="1214771721" priority="1" type="highway.track" numLanes="1" speed="5.56" shape="11634.01,12237.78 11614.74,12413.96 11607.03,12522.58 11599.00,12609.44 11585.64,12735.93 11586.50,12757.13 11573.28,12818.94 11568.11,12893.89 11558.46,12979.12 11559.65,13022.06 11558.82,13100.31 11544.89,13125.16 11520.86,13122.74 11514.37,13116.14 11487.14,13107.70 11446.21,13101.83 11430.98,13094.60 11413.20,13085.79" allow="pedestrian motorcycle moped bicycle"/>
    <edge id="-105466461#1" from="1214771440" to="1214771162" priority="1" type="highway.track" numLanes="1" speed="5.56" shape="11669.57,11869.65 11664.78,11922.16 11658.06,11937.31 11661.05,11963.96 11648.40,12125.78 11636.97,12173.48 11634.01,12237.78" allow="pedestrian motorcycle moped bicycle"/>
    <edge id="-105466461#2" from="1214771059" to="1214771440" priority="1" type="highway.track" numLanes="1" speed="5.56" shape="11849.26,10500.77 11844.85,10504.14 11815.50,10541.33 11804.32,10565.12 11782.26,10790.38 11760.33,11002.62 11749.47,11099.24 11741.82,11150.78 11737.09,11184.42 11727.16,11245.17 11730.83,11259.34 11718.24,11416.25 11707.67,11536.78 11697.64,11555.15 11697.78,11593.19 11678.21,11789.16 11672.03,11804.86 11674.05,11820.64 11669.57,11869.65" allow="pedestrian motorcycle moped bicycle"/>
    <edge id="-105466461#3" from="1214771561" to="1214771059" priority="1" type="highway.track" numLanes="1" speed="5.56" shape="12039.93,10220.66 12039.58,10228.54 12022.37,10305.52 12005.84,10369.46 11952.90,10416.17 11934.78,10423.05 11915.40,10448.38 11891.13,10468.77 11849.26,10500.77" allow="pedestrian motorcycle moped bicycle"/>
    <edge id="-105466461#4" from="1214770941" to="1214771561" priority="1" type="highway.track" numLanes="1" speed="5.56" shape="11862.93,10139.68 11908.46,10226.06 11913.61,10232.35 11923.93,10238.43 11933.75,10240.18 11944.95,10238.14 11971.05,10224.28 11982.02,10220.04 12015.88,10222.31 12039.93,10220.66" allow="pedestrian motorcycle moped bicycle"/>
    <edge id="-105466461#5" from="1214770992" to="1214770941" priority="1" type="highway.track" numLanes="1" speed="5.56" shape="11725.12,9960.67 11775.31,10003.50 11809.95,10034.30 11847.39,10110.21 11862.93,10139.68" allow="pedestrian motorcycle moped bicycle"/>
    <edge id="-105466462" from="1214771125" to="1214771292" priority="1" type="highway.service" numLanes="1" speed="5.56" shape="16150.31,9042.52 16174.73,9032.95 16192.84,9024.44 16197.30,9017.41 16196.72,9006.96 16168.11,8913.96" allow="pedestrian delivery bicycle"/>
    <edge id="-105466463" from="1214770885" to="1214942382" priority="1" type="highway.track" numLanes="1" speed="5.56" shape="11697.55,10147.98 11663.92,10150.65 11633.17,10164.46 11609.69,10163.12 11589.72,10139.00 11576.17,10077.45 11553.38,9959.84 11539.09,9916.77 11545.92,9890.22 11541.18,9872.78 11512.48,9849.11 11461.50,9812.70 11423.62,9778.09 11376.13,9722.17 11352.28,9601.29 11400.96,9545.30 11445.02,9513.17 11477.19,9467.87 11467.66,9439.51 11428.59,9414.11 11406.80,9407.35 11374.05,9404.83 11324.08,9376.05 11273.90,9367.91 11227.99,9369.59 11178.95,9356.03 11150.51,9357.90 11141.43,9390.39 11119.48,9398.85 11092.32,9384.44 11049.97,9359.00 11028.26,9344.63 10977.95,9349.53 10930.50,9391.41 10902.20,9381.33" allow="pedestrian motorcycle moped bicycle"/>
    <edge id="-105466465#0" from="1214770917" to="1214771007" priority="1" type="highway.service" numLanes="1" speed="5.56" shape="16107.69,8957.48 16115.44,8949.74 16121.44,8942.34 16125.67,8930.96 16137.62,8868.89 16139.93,8859.66 16144.40,8849.38 16149.92,8841.85 16163.45,8831.11 16169.90,8825.75 16178.99,8812.74 16180.51,8809.45 16181.25,8805.93 16180.75,8802.25 16178.96,8798.18 16162.67,8778.96 16159.95,8773.29 16158.78,8766.56 16159.69,8757.86 16162.69,8749.76 16168.18,8742.12 16175.09,8735.07 16183.51,8731.02 16206.01,8723.77 16219.10,8716.43 16224.64,8711.81 16229.82,8704.24 16237.65,8692.81 16246.24,8677.12 16249.55,8668.78 16252.41,8659.91 16257.22,8625.71 16258.04,8620.85 16261.13,8616.69 16264.70,8613.96 16270.09,8612.02 16313.92,8609.60" allow="pedestrian delivery bicycle"/>
    <edge id="-105466465#1" from="655983146" to="1214770917" priority="1" type="highway.service" numLanes="1" speed="5.56" shape="15618.43,9448.42 15637.39,9454.58 15688.43,9471.28 15699.34,9474.10 15710.52,9474.49 15721.34,9473.37 15732.42,9469.98 15754.68,9456.61 15794.26,9422.51 15872.89,9360.03 15878.17,9353.97 15883.02,9346.41 15884.72,9338.29 15884.57,9328.63 15874.58,9248.53 15873.90,9237.24 15876.20,9226.81 15879.58,9216.92 15885.26,9206.95 15916.06,9160.13 15919.71,9152.96 15922.55,9143.06 15927.50,9124.93 15932.96,9113.44 15948.41,9086.28 15964.52,9052.77 15967.38,9048.18 15970.55,9044.75 15976.46,9040.69 15992.04,9034.31 15999.45,9030.85 16006.12,9027.19 16025.37,9014.55 16042.39,9003.87 16091.38,8968.93 16107.69,8957.48" allow="pedestrian delivery bicycle"/>
    <edge id="-105466466#0" from="1214770954" to="1214771284" priority="1" type="highway.service" numLanes="1" speed="5.56" shape="12881.79,8452.30 12765.10,8481.23 12725.65,8491.95 12699.91,8493.90" allow="pedestrian delivery bicycle"/>
    <edge id="-105466466#1" from="1214771002" to="1214770954" priority="1" type="highway.service" numLanes="1" speed="5.56" shape="15049.94,8004.07 15029.32,8002.11 15012.49,8003.31 14882.13,8021.51 14736.66,8035.21 14556.24,8099.88 14534.37,8103.72 14443.69,8099.25 14392.42,8091.91 14338.60,8066.37 14302.54,8066.53 14263.05,8080.79 14230.82,8080.46 14195.64,8048.04 14183.75,8038.11 14170.11,8034.18 14154.03,8033.46 14140.33,8037.66 14127.12,8044.06 14080.62,8076.72 14068.54,8084.18 14052.65,8087.29 14036.01,8086.01 13968.15,8068.47 13918.28,8083.16 13818.48,8183.03 13809.28,8189.57 13801.60,8192.89 13791.74,8192.67 13753.27,8189.00 13662.90,8184.53 13600.85,8161.59 13586.43,8158.72 13568.36,8159.62 13552.17,8165.44 13539.52,8174.53 13257.11,8402.47 13240.06,8413.16 13224.18,8419.49 13180.90,8430.44 13165.83,8432.48 12998.08,8432.88 12969.66,8435.03 12943.68,8439.36 12881.79,8452.30" allow="pedestrian delivery bicycle"/>
    <edge id="-105466474" from="6543048575" to="6561085471" priority="1" type="highway.track" numLanes="1" speed="5.56" shape="16148.33,9064.86 16151.58,9086.04 16168.96,9140.73 16175.42,9153.15 16186.99,9167.82 16210.46,9196.30 16223.08,9207.02 16231.23,9212.27 16297.44,9242.15 16319.43,9253.40 16346.30,9312.34 16367.17,9339.27" allow="pedestrian motorcycle moped bicycle"/>
    <edge id="-105466476" from="1214771162" to="1214770800" priority="1" type="highway.track" numLanes="1" speed="5.56" shape="11634.01,12237.78 11622.63,12237.45 11611.75,12231.90 11597.87,12200.77 11581.10,12184.84 11557.33,12159.05 11539.46,12143.64 11530.36,12126.15 11522.25,12117.37 11508.12,12116.26" allow="pedestrian motorcycle moped bicycle"/>
    <edge id="-105491009#0" from="1214953142" to="1214953086" priority="1" type="highway.track" numLanes="1" speed="5.56" shape="11297.13,8982.65 11242.41,8939.42 11117.09,8905.48 11072.51,8885.44 10986.37,8867.14 10942.65,8867.77 10915.65,8838.13 10885.13,8831.29 10844.09,8785.21 10799.51,8764.09 10773.21,8771.41" allow="pedestrian motorcycle moped bicycle"/>
    <edge id="-105491009#1" from="1214953124" to="1214953142" priority="1" type="highway.track" numLanes="1" speed="5.56" shape="11755.18,8966.87 11730.56,8968.25 11666.00,8976.52 11609.37,8958.54 11540.41,8969.76 11486.60,8994.18 11429.85,8987.05 11379.03,8987.88 11343.82,8986.37 11297.13,8982.65" allow="pedestrian motorcycle moped bicycle"/>
    <edge id="-105491009#2" from="1214953122" to="1214953124" priority="1" type="highway.track" numLanes="1" speed="5.56" shape="12099.58,9028.32 12037.46,9062.24 12006.77,9073.01 11994.60,9074.79 11984.47,9073.91 11969.93,9069.63 11956.33,9061.92 11900.18,9013.06 11891.72,9000.20 11883.37,8985.76 11857.64,8928.40 11853.19,8921.33 11846.29,8916.87 11841.12,8915.32 11826.60,8915.61 11781.80,8928.31 11772.75,8933.89 11763.89,8945.47 11757.48,8957.36 11755.18,8966.87" allow="pedestrian motorcycle moped bicycle"/>
    <edge id="-105917002#0" from="6654161925" to="8067657637" priority="4" type="highway.unclassified" numLanes="1" speed="13.89" shape="16269.21,17403.65 16291.96,17384.30 16305.77,17370.45 16314.64,17359.67 16316.91,17350.86 16316.40,17341.34 16314.02,17333.97 16308.94,17328.63 16300.30,17324.60 16294.21,17325.08" disallow="tram rail_urban rail rail_electric rail_fast ship"/>
    <edge id="-105917002#1" from="1070910370" to="6654161925" priority="4" type="highway.unclassified" numLanes="1" speed="13.89" shape="15603.07,18748.58 15570.29,18726.50 15561.08,18718.12 15554.20,18709.47 15550.75,18699.53 15548.12,18689.58 15546.47,18676.24 15548.79,18663.76 15551.35,18653.73 15558.06,18639.79 15604.84,18557.23 15639.25,18507.16 15651.30,18492.47 15664.79,18482.82 15676.87,18477.78 15688.53,18473.28 15703.77,18467.32 15718.90,18458.24 15729.51,18450.05 15736.29,18441.28 15757.53,18396.11 15787.18,18317.72 15798.56,18287.53 15803.23,18273.03 15805.01,18259.46 15803.22,18247.07 15790.87,18198.42 15789.97,18179.52 15793.43,18162.43 15828.34,18091.03 15852.63,18040.58 15862.22,18026.14 15893.84,17994.39 15960.01,17940.16 15978.22,17922.69 15993.02,17906.25 16039.80,17836.33 16046.25,17821.31 16048.38,17800.40 16048.05,17765.61 16049.56,17752.17 16052.86,17736.30 16057.42,17717.72 16064.71,17700.41 16075.01,17682.58 16101.98,17650.77 16138.08,17609.42 16141.00,17604.62 16143.30,17599.69 16159.36,17560.45 16161.87,17555.37 16166.66,17548.01 16186.11,17523.89 16224.97,17477.41 16234.57,17463.63 16269.21,17403.65" disallow="tram rail_urban rail rail_electric rail_fast ship"/>
    <edge id="-105917006" from="1070921418" to="1219580512" priority="3" type="highway.residential" numLanes="1" speed="13.89" shape="11278.87,18554.51 11289.25,18557.69 11301.47,18558.52 11348.14,18557.02 11356.47,18557.65 11363.00,18561.25 11367.17,18567.54 11367.77,18575.30 11365.50,18583.16 11334.24,18630.54 11330.30,18641.51 11329.10,18651.01 11330.34,18662.85 11332.79,18677.55 11332.68,18680.61 11331.39,18683.62 11328.66,18686.48 11270.61,18728.41 11261.88,18739.46 11258.85,18750.34 11258.55,18769.19 11262.10,18782.69 11270.71,18795.69 11282.10,18804.51 11356.69,18846.62 11366.10,18849.17 11377.04,18849.02 11387.46,18845.32 11401.80,18834.46 11424.47,18809.69 11431.71,18797.12 11434.31,18784.51 11433.22,18771.18 11426.63,18735.09 11426.18,18725.17 11428.88,18715.68 11435.67,18707.33 11442.55,18703.18 11450.79,18700.55" disallow="tram rail_urban rail rail_electric rail_fast ship"/>
    <edge id="-105917012" from="1219580341" to="1219581087" priority="1" type="highway.track" numLanes="1" speed="5.56" shape="14990.28,17859.75 14995.31,17846.22 15005.76,17827.02 15031.41,17807.44 15059.08,17788.98 15070.39,17779.71 15091.00,17755.18 15104.36,17732.22 15108.76,17716.36 15111.46,17693.83 15111.61,17679.16 15103.03,17662.21 15090.87,17649.18 15078.06,17632.19 15076.43,17618.04 15078.32,17607.18 15084.21,17591.89 15105.02,17562.88 15109.60,17556.00 15110.64,17548.13 15106.60,17541.56 15083.30,17522.16 15077.08,17515.57 15073.31,17510.23 15067.12,17500.93 15064.12,17486.76 15065.43,17465.85 15085.98,17342.52 15101.89,17257.33 15127.62,17201.60 15150.74,17159.72 15158.09,17136.15 15159.16,17112.50 15152.23,17089.27 15126.81,17042.04" allow="pedestrian motorcycle moped bicycle"/>
    <edge id="-105917013#0" from="1219580818" to="1219580339" priority="3" type="highway.residential" numLanes="1" speed="13.89" shape="11915.78,18842.85 11918.24,18831.50 11922.44,18822.30 11937.87,18797.45 11942.77,18786.63 11956.84,18761.29" disallow="tram rail_urban rail rail_electric rail_fast ship"/>
    <edge id="-105917013#1" from="3143146601" to="1219580818" priority="3" type="highway.residential" numLanes="1" speed="13.89" shape="12017.48,18908.04 12001.53,18891.91 11994.21,18886.13 11984.54,18882.08 11946.13,18871.52 11932.68,18865.43 11923.97,18856.41 11915.78,18842.85" disallow="tram rail_urban rail rail_electric rail_fast ship"/>
    <edge id="-105917017#0" from="1219580288" to="1219580818" priority="3" type="highway.residential" numLanes="1" speed="13.89" shape="11917.92,18939.42 11919.23,18932.77 11920.43,18909.81 11914.13,18877.94 11912.39,18867.86 11912.71,18857.20 11915.78,18842.85" disallow="tram rail_urban rail rail_electric rail_fast ship"/>
    <edge id="-105917017#1" from="1219580308" to="1219580288" priority="3" type="highway.residential" numLanes="1" speed="13.89" shape="11888.23,19056.15 11892.61,19019.21 11895.66,19002.52 11900.31,18989.53 11917.92,18939.42" disallow="tram rail_urban rail rail_electric rail_fast ship"/>
    <edge id="-105917020" from="7828855480" to="1070921491" priority="3" type="highway.residential" numLanes="1" speed="13.89" shape="11949.51,18757.27 11920.48,18787.89 11895.52,18808.01 11886.68,18817.58 11880.37,18832.46 11873.05,18865.95 11866.47,18879.34 11856.11,18890.51 11839.05,18901.34 11828.34,18904.35 11819.33,18903.99 11812.29,18899.64 11786.71,18867.14 11781.20,18864.50 11775.94,18864.25 11770.45,18866.56 11766.15,18872.97 11763.99,18882.81 11760.16,18915.87 11752.06,18957.65 11740.79,18989.06 11722.46,19029.23 11699.40,19064.47 11689.87,19072.93 11680.53,19077.04 11671.09,19078.17 11657.17,19075.71 11632.33,19059.28 11617.01,19048.50 11605.66,19035.21 11598.25,19024.38 11593.59,19000.96 11592.63,18975.12 11596.30,18948.67 11605.19,18924.42 11620.12,18895.90 11663.56,18821.33 11673.08,18799.27 11675.98,18784.07 11675.59,18768.85 11661.58,18722.09 11661.50,18705.23 11664.65,18691.67 11671.61,18680.47 11683.89,18670.40 11704.35,18661.38 11788.06,18637.12 11793.15,18633.02 11795.25,18628.43 11795.45,18622.17 11783.42,18590.58 11782.97,18581.06 11785.68,18570.21" disallow="tram rail_urban rail rail_electric rail_fast ship"/>
    <edge id="-105917027" from="1219580838" to="1070921352" priority="1" type="highway.track" numLanes="1" speed="5.56" shape="12786.58,18482.78 12823.00,18466.43 12850.31,18455.16 12868.58,18446.79 12882.13,18442.46 12893.69,18438.23 12901.45,18434.91 12907.09,18431.16 12908.90,18428.19 12909.10,18425.89 12908.15,18421.18 12904.54,18414.34 12886.51,18390.85 12872.49,18344.69" allow="pedestrian motorcycle moped bicycle"/>
    <edge id="-105917031#0" from="1219581062" to="1219580928" priority="1" type="highway.track" numLanes="1" speed="5.56" shape="15393.69,17294.34 15384.86,17291.38 15372.04,17289.90 15350.56,17291.17" allow="pedestrian motorcycle moped bicycle"/>
    <edge id="-105917031#1" from="1219580609" to="1219581062" priority="1" type="highway.track" numLanes="1" speed="5.56" shape="14989.03,17877.09 14997.89,17861.87 15014.78,17842.74 15029.39,17830.93 15046.56,17822.96 15067.67,17817.47 15099.83,17812.63 15112.88,17806.65 15166.79,17748.90 15175.47,17728.88 15181.25,17711.82 15190.32,17679.70 15195.65,17666.84 15206.85,17654.19 15285.92,17621.44 15337.13,17598.45 15353.24,17586.92 15383.71,17561.69 15427.50,17518.11 15478.67,17459.79 15501.63,17432.85 15519.83,17417.67 15546.49,17403.00 15562.19,17392.15 15579.20,17372.35 15594.69,17354.02 15601.53,17340.37 15605.35,17328.72 15606.57,17316.23 15602.16,17306.13 15590.89,17299.08 15572.51,17292.91 15553.09,17293.39 15532.80,17299.16 15516.19,17307.14 15497.03,17322.44 15477.47,17336.37 15463.92,17339.22 15446.69,17339.86 15425.25,17337.47 15413.46,17328.23 15402.87,17308.42 15393.69,17294.34" allow="pedestrian motorcycle moped bicycle"/>
    <edge id="-105917036#0" from="1219580737" to="1219580537" priority="3" type="highway.residential" numLanes="1" speed="13.89" shape="15512.15,19235.71 15538.67,19247.57 15578.21,19264.56" disallow="tram rail_urban rail rail_electric rail_fast ship"/>
    <edge id="-105917036#1" from="1219580237" to="1219580737" priority="3" type="highway.residential" numLanes="1" speed="13.89" shape="15448.47,19204.09 15457.17,19208.95 15512.15,19235.71" disallow="tram rail_urban rail rail_electric rail_fast ship"/>
    <edge id="-105917036#2" from="1219580677" to="1219580237" priority="3" type="highway.residential" numLanes="1" speed="13.89" disallow="tram rail_urban rail rail_electric rail_fast ship"/>
    <edge id="-105917036#3" from="1219580904" to="1219580677" priority="3" type="highway.residential" numLanes="1" speed="13.89" shape="15320.16,19134.03 15353.23,19149.56 15381.52,19163.71" disallow="tram rail_urban rail rail_electric rail_fast ship"/>
    <edge id="-105917037#0" from="1219580264" to="1219580742" priority="3" type="highway.residential" numLanes="1" speed="13.89" disallow="tram rail_urban rail rail_electric rail_fast ship"/>
    <edge id="-105917037#1" from="1219580790" to="1219580264" priority="3" type="highway.residential" numLanes="1" speed="13.89" shape="15497.37,19182.31 15476.39,19124.05 15469.38,19101.29 15459.97,19071.01 15455.21,19055.20" disallow="tram rail_urban rail rail_electric rail_fast ship"/>
    <edge id="-105917039" from="1219581024" to="1219581041" priority="1" type="highway.track" numLanes="1" speed="5.56" shape="12957.50,18763.48 12932.82,18770.29 12914.86,18762.49 12903.08,18739.53 12882.48,18721.91 12856.22,18672.17 12827.86,18615.04 12826.41,18609.72 12827.07,18606.26 12829.62,18603.64 12834.22,18601.79 12858.10,18596.61 12869.39,18591.43 12880.83,18581.76 12897.18,18561.67 12989.83,18496.33 12995.20,18492.64" allow="pedestrian motorcycle moped bicycle"/>
    <edge id="-105917045#0" from="1219581006" to="1219580237" priority="3" type="highway.residential" numLanes="1" speed="13.89" shape="15383.54,19339.08 15393.07,19316.34 15407.94,19278.57 15429.99,19234.48 15448.47,19204.09" disallow="tram rail_urban rail rail_electric rail_fast ship"/>
    <edge id="-105917045#1" from="1219581097" to="1219581006" priority="3" type="highway.residential" numLanes="1" speed="13.89" shape="15320.93,19459.63 15367.78,19368.28 15383.54,19339.08" disallow="tram rail_urban rail rail_electric rail_fast ship"/>
    <edge id="-105917045#2" from="4177393417" to="1219581097" priority="3" type="highway.residential" numLanes="1" speed="13.89" disallow="tram rail_urban rail rail_electric rail_fast ship"/>
    <edge id="-105917045#3" from="1219580754" to="4177393417" priority="3" type="highway.residential" numLanes="1" speed="13.89" shape="15286.82,19506.64 15295.29,19498.49 15303.45,19489.34" disallow="tram rail_urban rail rail_electric rail_fast ship"/>
    <edge id="-105917047#0" from="1219580341" to="3143174729" priority="1" type="highway.track" numLanes="1" speed="5.56" shape="14990.28,17859.75 14978.89,17837.62 14935.98,17731.30 14932.61,17713.73 14934.02,17677.40" allow="pedestrian motorcycle moped bicycle"/>
    <edge id="-105917047#1" from="1219580609" to="1219580341" priority="1" type="highway.track" numLanes="1" speed="5.56" allow="pedestrian motorcycle moped bicycle"/>
    <edge id="-105917047#2" from="1219580939" to="1219580609" priority="1" type="highway.track" numLanes="1" speed="5.56" shape="14984.73,17946.95 14985.78,17935.69 14989.03,17877.09" allow="pedestrian motorcycle moped bicycle"/>
    <edge id="-105917051" from="1219580609" to="1219580942" priority="1" type="highway.track" numLanes="1" speed="5.56" shape="14989.03,17877.09 15011.94,17867.45 15038.35,17864.19 15086.37,17858.84 15128.34,17857.65 15171.37,17860.40 15233.93,17877.63 15251.81,17879.72 15268.48,17877.99 15289.29,17877.25 15306.48,17880.28 15316.26,17886.09 15326.04,17905.22 15334.98,17965.66 15325.02,18070.48 15317.76,18190.29 15315.87,18215.41 15318.27,18274.15 15320.35,18310.32" allow="pedestrian motorcycle moped bicycle"/>
    <edge id="-105917052#0" from="1219580524" to="1219580264" priority="3" type="highway.residential" numLanes="1" speed="13.89" disallow="tram rail_urban rail rail_electric rail_fast ship"/>
    <edge id="-105917052#1" from="1219580491" to="1219580524" priority="3" type="highway.residential" numLanes="1" speed="13.89" shape="15590.56,19000.86 15571.06,19010.04 15557.56,19015.89 15519.73,19030.30" disallow="tram rail_urban rail rail_electric rail_fast ship"/>
    <edge id="-105917052#2" from="1219580594" to="1219580491" priority="3" type="highway.residential" numLanes="1" speed="13.89" disallow="tram rail_urban rail rail_electric rail_fast ship"/>
    <edge id="-105917054" from="1219580788" to="1219581097" priority="3" type="highway.residential" numLanes="1" speed="13.89" disallow="tram rail_urban rail rail_electric rail_fast ship"/>
    <edge id="-105917056" from="1219580419" to="1070921412" priority="4" type="highway.unclassified" numLanes="1" speed="13.89" shape="12842.14,18010.91 12866.88,18063.08 12874.37,18078.38 12880.91,18093.13 12884.89,18105.27 12886.95,18116.71 12892.37,18197.75 12896.41,18214.29 12901.63,18225.42 12919.66,18238.13" disallow="tram rail_urban rail rail_electric rail_fast ship"/>
    <edge id="-105917058" from="1219580940" to="1070921551" priority="4" type="highway.unclassified" numLanes="1" speed="13.89" shape="12359.16,18951.82 12332.62,18954.12 12312.94,18953.78 12299.87,18949.56 12287.93,18940.88 12270.36,18921.52 12264.75,18909.65 12263.10,18898.07 12264.26,18884.36 12267.14,18876.63 12273.08,18871.06 12280.70,18867.67 12297.77,18863.63 12312.57,18859.31 12325.10,18851.70 12334.52,18839.83 12339.45,18825.74 12339.90,18809.04 12326.17,18749.63 12315.38,18710.10 12294.08,18668.97 12286.80,18659.79 12277.03,18652.06 12268.33,18647.90 12250.01,18640.75" disallow="tram rail_urban rail rail_electric rail_fast ship"/>
    <edge id="-105917065" from="1219580690" to="1219581049" priority="3" type="highway.residential" numLanes="1" speed="13.89" disallow="tram rail_urban rail rail_electric rail_fast ship"/>
    <edge id="-105917066#0" from="1219580524" to="1219580736" priority="3" type="highway.residential" numLanes="1" speed="13.89" disallow="tram rail_urban rail rail_electric rail_fast ship"/>
    <edge id="-105917066#1" from="1219580790" to="1219580524" priority="3" type="highway.residential" numLanes="1" speed="13.89" shape="15497.37,19182.31 15535.50,19169.88 15549.86,19163.20 15555.78,19159.26 15559.24,19154.95 15561.21,19149.80 15561.21,19143.14 15558.70,19134.28 15540.78,19086.95 15519.73,19030.30" disallow="tram rail_urban rail rail_electric rail_fast ship"/>
    <edge id="-105917066#2" from="1219580532" to="1219580790" priority="3" type="highway.residential" numLanes="1" speed="13.89" shape="15452.83,19201.01 15474.18,19191.58 15497.37,19182.31" disallow="tram rail_urban rail rail_electric rail_fast ship"/>