<?xml version="1.0" encoding="UTF-8"?>

<!-- generated on 2021-11-06 01:11:43 by Eclipse SUMO netedit Version 1.10.0
<configuration xmlns:xsi="http://www.w3.org/2001/XMLSchema-instance" xsi:noNamespaceSchemaLocation="http://sumo.dlr.de/xsd/netconvertConfiguration.xsd">

    <input>
        <sumo-net-file value="/home/pedro/Documents/USP/Mestrado/MAC5910/Article/Workspace/veins/examples/veins/osm.net.xml"/>
    </input>

    <output>
        <output-file value="/home/pedro/Documents/USP/Mestrado/MAC5910/Article/Workspace/veins/examples/veins/osm.net.xml"/>
        <plain-output-prefix value="/home/pedro/Documents/USP/Mestrado/MAC5910/Article/Workspace/veins/examples/veins/osm"/>
        <output.street-names value="true"/>
    </output>

    <processing>
        <geometry.min-radius.fix.railways value="false"/>
        <geometry.max-grade.fix value="false"/>
        <offset.disable-normalization value="true"/>
        <lefthand value="false"/>
    </processing>

    <junctions>
        <no-turnarounds value="true"/>
        <junctions.corner-detail value="5"/>
        <junctions.limit-turn-speed value="5.5"/>
        <rectangular-lane-cut value="false"/>
    </junctions>

    <pedestrian>
        <walkingareas value="false"/>
    </pedestrian>

    <report>
        <aggregate-warnings value="5"/>
    </report>

</configuration>
-->

<connections version="1.9" xmlns:xsi="http://www.w3.org/2001/XMLSchema-instance" xsi:noNamespaceSchemaLocation="http://sumo.dlr.de/xsd/connections_file.xsd">
    <connection from="-105466456" to="4626507#1" fromLane="0" toLane="0"/>
    <connection from="-105466456" to="105466456" fromLane="0" toLane="0"/>

    <connection from="-105466458" to="105466461#5" fromLane="0" toLane="0"/>
    <connection from="-105466458" to="-105466461#4" fromLane="0" toLane="0"/>
    <connection from="-105466458" to="105466458" fromLane="0" toLane="0"/>

    <connection from="-105466461#0" to="4626507#3" fromLane="0" toLane="0"/>
    <connection from="-105466461#0" to="105466461#0" fromLane="0" toLane="0"/>

    <connection from="-105466461#1" to="-105466461#0" fromLane="0" toLane="0"/>
    <connection from="-105466461#1" to="-105466476" fromLane="0" toLane="0"/>
    <connection from="-105466461#1" to="105466461#1" fromLane="0" toLane="0"/>

    <connection from="-105466461#2" to="-105466461#1" fromLane="0" toLane="0"/>
    <connection from="-105466461#2" to="-105466456" fromLane="0" toLane="0"/>
    <connection from="-105466461#2" to="105466461#2" fromLane="0" toLane="0"/>

    <connection from="-105466461#3" to="-105466461#2" fromLane="0" toLane="0"/>
    <connection from="-105466461#3" to="-105466458" fromLane="0" toLane="0"/>
    <connection from="-105466461#3" to="105466461#3" fromLane="0" toLane="0"/>

    <connection from="-105466461#4" to="-105466461#3" fromLane="0" toLane="0"/>
    <connection from="-105466461#4" to="105466461#4" fromLane="0" toLane="0"/>

    <connection from="-105466461#5" to="-105466461#4" fromLane="0" toLane="0"/>
    <connection from="-105466461#5" to="105466458" fromLane="0" toLane="0"/>
    <connection from="-105466461#5" to="105466461#5" fromLane="0" toLane="0"/>

    <connection from="-105466476" to="4626507#2" fromLane="0" toLane="0"/>
    <connection from="-105466476" to="105466476" fromLane="0" toLane="0"/>

    <connection from="-153713996#0" to="482489205" fromLane="0" toLane="0"/>
    <connection from="-153713996#0" to="-92231527#1" fromLane="0" toLane="0"/>
    <connection from="-153713996#0" to="92231527#2" fromLane="0" toLane="0"/>

    <connection from="-153713996#1" to="-153713996#0" fromLane="0" toLane="0" keepClear="0"/>
    <connection from="-153713996#1" to="153713996#1" fromLane="0" toLane="0"/>

    <connection from="-203508064#1" to="203508064#1" fromLane="0" toLane="0"/>

    <connection from="-203508066#1" to="203508066#1" fromLane="0" toLane="0"/>

    <connection from="-226277583#0" to="489458878#6" fromLane="0" toLane="1"/>
    <connection from="-226277583#0" to="226277583#0" fromLane="0" toLane="0"/>

    <connection from="-226277583#1" to="-226277583#0" fromLane="0" toLane="0"/>
    <connection from="-226277583#1" to="226277583#1" fromLane="0" toLane="0"/>

    <connection from="-251689884#0" to="-254068758" fromLane="0" toLane="0" keepClear="0"/>
    <connection from="-251689884#0" to="251689884#0" fromLane="0" toLane="0"/>

    <connection from="-251689884#1" to="-251689884#0" fromLane="0" toLane="0"/>
    <connection from="-251689884#1" to="751759527" fromLane="0" toLane="0"/>
    <connection from="-251689884#1" to="251689884#1" fromLane="0" toLane="0"/>

    <connection from="-251690056#0" to="-251689884#1" fromLane="0" toLane="0"/>

    <connection from="-251690240" to="-251690056#0" fromLane="0" toLane="0"/>
    <connection from="-251690240" to="-751759529" fromLane="0" toLane="0"/>
    <connection from="-251690240" to="251690056#1" fromLane="0" toLane="0"/>

    <connection from="-252221663" to="111047039" fromLane="0" toLane="0"/>
    <connection from="-252221663" to="111047039" fromLane="1" toLane="1"/>
    <connection from="-252221663" to="252221663" fromLane="1" toLane="1"/>

    <connection from="-252221720" to="252221744" fromLane="0" toLane="0"/>
    <connection from="-252221720" to="252221720" fromLane="0" toLane="0"/>

    <connection from="-254012329#0" to="256777363#1" fromLane="0" toLane="0"/>
    <connection from="-254012329#0" to="385655175#0" fromLane="0" toLane="0"/>
    <connection from="-254012329#0" to="254012329#0" fromLane="0" toLane="0"/>

    <connection from="-254068758" to="287782211#2" fromLane="0" toLane="0"/>
    <connection from="-254068758" to="254068758" fromLane="0" toLane="0"/>

    <connection from="-254446672" to="-254446673" fromLane="0" toLane="0"/>

    <connection from="-254446673" to="-254446672" fromLane="0" toLane="0"/>

    <connection from="-256775123" to="292771162#0" fromLane="0" toLane="0"/>
    <connection from="-256775123" to="256775156" fromLane="0" toLane="0"/>

    <connection from="-256775248" to="-256775123" fromLane="0" toLane="0"/>

    <connection from="-256775268" to="-256775248" fromLane="0" toLane="0"/>

    <connection from="-256777363#1" to="385655175#0" fromLane="0" toLane="0"/>
    <connection from="-256777363#1" to="254012329#0" fromLane="0" toLane="0"/>
    <connection from="-256777363#1" to="256777363#1" fromLane="0" toLane="0"/>

    <connection from="-256777363#2" to="-256777363#1" fromLane="0" toLane="0"/>
    <connection from="-256777363#2" to="256777363#2" fromLane="0" toLane="0"/>

    <connection from="-259554457#0" to="385655141#1" fromLane="0" toLane="0"/>
    <connection from="-259554457#0" to="-385655141#0" fromLane="0" toLane="0"/>
    <connection from="-259554457#0" to="259554457#0" fromLane="0" toLane="0"/>

    <connection from="-259554457#1" to="-259554457#0" fromLane="0" toLane="0"/>
    <connection from="-259554457#1" to="966979837" fromLane="0" toLane="0"/>
    <connection from="-259554457#1" to="259554457#1" fromLane="0" toLane="0"/>

    <connection from="-259554471" to="-259554457#1" fromLane="0" toLane="0" keepClear="0"/>
    <connection from="-259554471" to="259554471" fromLane="0" toLane="0"/>

    <connection from="-284348999#0" to="-254012329#0" fromLane="0" toLane="0"/>
    <connection from="-284348999#0" to="486437200" fromLane="0" toLane="1"/>
    <connection from="-284348999#0" to="-702937702" fromLane="0" toLane="0"/>

    <connection from="-284348999#1" to="-849778923" fromLane="0" toLane="0"/>
    <connection from="-284348999#1" to="-284348999#0" fromLane="0" toLane="0"/>
    <connection from="-284348999#1" to="284348999#1" fromLane="0" toLane="0"/>

    <connection from="-286524324" to="-251690240" fromLane="0" toLane="0"/>
    <connection from="-286524324" to="286524324" fromLane="0" toLane="0"/>

    <connection from="-286619623" to="-286619686#1" fromLane="0" toLane="0"/>

    <connection from="-286619686#0" to="721640626#1" fromLane="0" toLane="0"/>
    <connection from="-286619686#0" to="721640626#1" fromLane="0" toLane="1"/>
    <connection from="-286619686#0" to="286619686#0" fromLane="0" toLane="0"/>
    <connection from="-286619686#0" to="721640626#1" fromLane="0" toLane="2"/>
    <connection from="-286619686#0" to="721640626#1" fromLane="0" toLane="3"/>
    <connection from="-286619686#0" to="721640626#1" fromLane="0" toLane="4"/>
    <connection from="-286619686#0" to="721640626#1" fromLane="0" toLane="5"/>
    <connection from="-286619686#0" to="721640626#1" fromLane="0" toLane="6"/>
    <connection from="-286619686#0" to="721640626#1" fromLane="0" toLane="7"/>
    <connection from="-286619686#0" to="721640626#1" fromLane="0" toLane="8"/>
    <connection from="-286619686#0" to="721640626#1" fromLane="0" toLane="9"/>
    <connection from="-286619686#0" to="721640626#1" fromLane="0" toLane="10"/>
    <connection from="-286619686#0" to="721640626#1" fromLane="0" toLane="11"/>
    <connection from="-286619686#0" to="721640626#1" fromLane="0" toLane="12"/>
    <connection from="-286619686#0" to="721640626#1" fromLane="0" toLane="13"/>
    <connection from="-286619686#0" to="721640626#1" fromLane="0" toLane="14"/>
    <connection from="-286619686#0" to="721640626#1" fromLane="0" toLane="15"/>

    <connection from="-286619686#1" to="-286619686#0" fromLane="0" toLane="0"/>
    <connection from="-286619686#1" to="-286619623" fromLane="0" toLane="0"/>
    <connection from="-286619686#1" to="286619686#1" fromLane="0" toLane="0"/>

    <connection from="-286619696#0" to="286619696#0" fromLane="0" toLane="0"/>

    <connection from="-286619696#1" to="296213289" fromLane="0" toLane="0"/>
    <connection from="-286619696#1" to="-286619696#0" fromLane="0" toLane="0"/>
    <connection from="-286619696#1" to="286619696#1" fromLane="0" toLane="0"/>

    <connection from="-294274827" to="294275395" fromLane="0" toLane="0"/>
    <connection from="-294274827" to="-294276444" fromLane="0" toLane="0"/>
    <connection from="-294274827" to="294274827" fromLane="0" toLane="0"/>

    <connection from="-294276444" to="-306758960" fromLane="0" toLane="1"/>
    <connection from="-294276444" to="522318484#0" fromLane="0" toLane="0"/>
    <connection from="-294276444" to="294276444" fromLane="0" toLane="0"/>

    <connection from="-295758391" to="-295758395#0" fromLane="0" toLane="0"/>
    <connection from="-295758391" to="295758395#1" fromLane="0" toLane="0"/>
    <connection from="-295758391" to="295758391" fromLane="0" toLane="0"/>

    <connection from="-295758392" to="295758396#1" fromLane="0" toLane="0"/>
    <connection from="-295758392" to="-295758396#0" fromLane="0" toLane="0"/>
    <connection from="-295758392" to="295758392" fromLane="0" toLane="0"/>

    <connection from="-295758393#0" to="295758393#0" fromLane="0" toLane="0"/>

    <connection from="-295758393#1" to="-295758393#0" fromLane="0" toLane="0"/>
    <connection from="-295758393#1" to="-295758394" fromLane="0" toLane="0"/>
    <connection from="-295758393#1" to="295758393#1" fromLane="0" toLane="0"/>

    <connection from="-295758394" to="295758394" fromLane="0" toLane="0"/>

    <connection from="-295758395#0" to="295758389#1" fromLane="0" toLane="0"/>
    <connection from="-295758395#0" to="295758395#0" fromLane="0" toLane="0"/>

    <connection from="-295758395#1" to="295758391" fromLane="0" toLane="0"/>
    <connection from="-295758395#1" to="-295758395#0" fromLane="0" toLane="0"/>
    <connection from="-295758395#1" to="295758395#1" fromLane="0" toLane="0"/>

    <connection from="-295758396#0" to="-295758399#0" fromLane="0" toLane="0"/>
    <connection from="-295758396#0" to="295758399#1" fromLane="0" toLane="0"/>
    <connection from="-295758396#0" to="295758396#0" fromLane="0" toLane="0"/>

    <connection from="-295758396#1" to="-295758396#0" fromLane="0" toLane="0"/>
    <connection from="-295758396#1" to="295758392" fromLane="0" toLane="0"/>
    <connection from="-295758396#1" to="295758396#1" fromLane="0" toLane="0"/>

    <connection from="-295758399#0" to="486009610#1" fromLane="0" toLane="1"/>
    <connection from="-295758399#0" to="295758399#0" fromLane="0" toLane="0"/>

    <connection from="-295758399#1" to="295758396#0" fromLane="0" toLane="0"/>
    <connection from="-295758399#1" to="-295758399#0" fromLane="0" toLane="0"/>
    <connection from="-295758399#1" to="295758399#1" fromLane="0" toLane="0"/>

    <connection from="-296213289" to="-286619696#0" fromLane="0" toLane="0"/>
    <connection from="-296213289" to="286619696#1" fromLane="0" toLane="0"/>
    <connection from="-296213289" to="296213289" fromLane="0" toLane="0"/>

    <connection from="-301833686" to="301833686" fromLane="0" toLane="0"/>

    <connection from="-303866745#0" to="303866745#0" fromLane="0" toLane="0"/>

    <connection from="-303866745#1" to="-303866745#0" fromLane="0" toLane="0"/>
    <connection from="-303866745#1" to="303866745#1" fromLane="0" toLane="0"/>

    <connection from="-303866745#2" to="-303866745#1" fromLane="0" toLane="0"/>
    <connection from="-303866745#2" to="303866745#2" fromLane="0" toLane="0"/>

    <connection from="-304466956#0" to="304466956#0" fromLane="0" toLane="0"/>

    <connection from="-306758960" to="-252221663" fromLane="0" toLane="0"/>
    <connection from="-306758960" to="-252221663" fromLane="1" toLane="1"/>
    <connection from="-306758960" to="259382547" fromLane="1" toLane="0"/>
    <connection from="-306758960" to="306758960" fromLane="1" toLane="1"/>

    <connection from="-321924698" to="321924698" fromLane="0" toLane="0"/>

    <connection from="-329988780" to="-851443664#0" fromLane="0" toLane="0"/>
    <connection from="-329988780" to="851443664#1" fromLane="0" toLane="0"/>
    <connection from="-329988780" to="851443663" fromLane="0" toLane="0"/>

    <connection from="-380513251#0" to="489458878#3" fromLane="0" toLane="0"/>
    <connection from="-380513251#0" to="489458878#3" fromLane="0" toLane="1"/>
    <connection from="-380513251#0" to="380513251#0" fromLane="0" toLane="0"/>

    <connection from="-380513251#1" to="422435592#0" fromLane="0" toLane="0"/>
    <connection from="-380513251#1" to="-380513251#0" fromLane="0" toLane="0"/>
    <connection from="-380513251#1" to="-640294086#1" fromLane="0" toLane="0"/>
    <connection from="-380513251#1" to="380513251#1" fromLane="0" toLane="0"/>

    <connection from="-380513260" to="4626684#4" fromLane="0" toLane="0"/>
    <connection from="-380513260" to="380513260" fromLane="0" toLane="0"/>

    <connection from="-385513739#0" to="837098514" fromLane="0" toLane="0"/>
    <connection from="-385513739#0" to="385513739#0" fromLane="0" toLane="0"/>

    <connection from="-385513739#1" to="947949508#0" fromLane="0" toLane="0"/>
    <connection from="-385513739#1" to="-385513739#0" fromLane="0" toLane="0"/>
    <connection from="-385513739#1" to="385513739#1" fromLane="0" toLane="0"/>

    <connection from="-385513739#2" to="-947949508#1" fromLane="0" toLane="0"/>
    <connection from="-385513739#2" to="-385513739#1" fromLane="0" toLane="0"/>
    <connection from="-385513739#2" to="385513739#2" fromLane="0" toLane="0"/>

    <connection from="-385513739#3" to="737369329#0" fromLane="0" toLane="0"/>
    <connection from="-385513739#3" to="-385513739#2" fromLane="0" toLane="0"/>
    <connection from="-385513739#3" to="385513739#3" fromLane="0" toLane="0"/>

    <connection from="-385513739#4" to="971768019" fromLane="0" toLane="0"/>
    <connection from="-385513739#4" to="-385513739#3" fromLane="0" toLane="0"/>
    <connection from="-385513739#4" to="385513739#4" fromLane="0" toLane="0"/>

    <connection from="-385513739#5" to="971768020" fromLane="0" toLane="0"/>
    <connection from="-385513739#5" to="-385513739#4" fromLane="0" toLane="0"/>
    <connection from="-385513739#5" to="385513739#5" fromLane="0" toLane="0"/>

    <connection from="-385513745#0" to="-385513739#5" fromLane="0" toLane="0"/>
    <connection from="-385513745#0" to="-971768024" fromLane="0" toLane="0"/>
    <connection from="-385513745#0" to="385513739#6" fromLane="0" toLane="0"/>

    <connection from="-385655141#0" to="-256777363#2" fromLane="0" toLane="0" keepClear="0"/>
    <connection from="-385655141#0" to="385655141#0" fromLane="0" toLane="0"/>

    <connection from="-385655141#1" to="-385655141#0" fromLane="0" toLane="0"/>
    <connection from="-385655141#1" to="259554457#0" fromLane="0" toLane="0"/>
    <connection from="-385655141#1" to="385655141#1" fromLane="0" toLane="0"/>

    <connection from="-407965640" to="407965640" fromLane="0" toLane="0"/>

    <connection from="-422435592#0" to="-380513251#0" fromLane="0" toLane="0"/>
    <connection from="-422435592#0" to="-640294086#1" fromLane="0" toLane="0"/>
    <connection from="-422435592#0" to="380513251#1" fromLane="0" toLane="0"/>
    <connection from="-422435592#0" to="422435592#0" fromLane="0" toLane="0"/>

    <connection from="-426418699#0" to="751759529" fromLane="0" toLane="0"/>
    <connection from="-426418699#0" to="-751759527" fromLane="0" toLane="0"/>
    <connection from="-426418699#0" to="426418699#0" fromLane="0" toLane="0"/>

    <connection from="-426418699#1" to="-426418699#0" fromLane="0" toLane="0"/>
    <connection from="-426418699#1" to="751759525" fromLane="0" toLane="0"/>
    <connection from="-426418699#1" to="426418699#1" fromLane="0" toLane="0"/>

    <connection from="-436179912#0" to="436179921#1" fromLane="0" toLane="0"/>
    <connection from="-436179912#0" to="436179912#0" fromLane="0" toLane="0"/>

    <connection from="-436179912#1" to="-436179912#0" fromLane="0" toLane="0"/>
    <connection from="-436179912#1" to="436179922" fromLane="0" toLane="0"/>
    <connection from="-436179912#1" to="436179912#1" fromLane="0" toLane="0"/>

    <connection from="-436179913#0" to="436179916#0" fromLane="0" toLane="0"/>
    <connection from="-436179913#0" to="-436179913#1" fromLane="0" toLane="0"/>
    <connection from="-436179913#0" to="436179913#0" fromLane="0" toLane="0"/>

    <connection from="-436179913#1" to="-436179913#0" fromLane="0" toLane="0"/>

    <connection from="-436179916#0" to="-436179913#1" fromLane="0" toLane="0"/>
    <connection from="-436179916#0" to="436179913#0" fromLane="0" toLane="0"/>
    <connection from="-436179916#0" to="436179916#0" fromLane="0" toLane="0"/>

    <connection from="-436179916#1" to="-436179916#0" fromLane="0" toLane="0"/>
    <connection from="-436179916#1" to="-457975076" fromLane="0" toLane="0"/>
    <connection from="-436179916#1" to="436179916#1" fromLane="0" toLane="0"/>

    <connection from="-436179916#2" to="-436179916#1" fromLane="0" toLane="0"/>
    <connection from="-436179916#2" to="436179916#2" fromLane="0" toLane="0"/>

    <connection from="-436179922" to="436179912#1" fromLane="0" toLane="0"/>
    <connection from="-436179922" to="-436179912#0" fromLane="0" toLane="0"/>
    <connection from="-436179922" to="436179922" fromLane="0" toLane="0"/>

    <connection from="-436180272" to="619763204#5" fromLane="0" toLane="0"/>
    <connection from="-436180272" to="619763204#5" fromLane="0" toLane="1"/>
    <connection from="-436180272" to="436180272" fromLane="0" toLane="0"/>

    <connection from="-436275393" to="436275393" fromLane="0" toLane="0"/>

    <connection from="-448826605" to="501452474#1" fromLane="0" toLane="0" keepClear="0"/>
    <connection from="-448826605" to="448826605" fromLane="0" toLane="0"/>

    <connection from="-457975076" to="436179920#0" fromLane="0" toLane="0"/>
    <connection from="-457975076" to="436179919" fromLane="0" toLane="0"/>
    <connection from="-457975076" to="457975076" fromLane="0" toLane="0"/>

    <connection from="-464229308" to="322544437#1" fromLane="0" toLane="1"/>
    <connection from="-464229308" to="464229308" fromLane="0" toLane="0"/>

    <connection from="-482489197#1" to="482489203" fromLane="0" toLane="0"/>
    <connection from="-482489197#1" to="482489200" fromLane="0" toLane="0"/>
    <connection from="-482489197#1" to="482489197#1" fromLane="0" toLane="0"/>

    <connection from="-482489197#2" to="-482489197#1" fromLane="0" toLane="0"/>
    <connection from="-482489197#2" to="482489197#2" fromLane="0" toLane="0"/>

    <connection from="-482489197#3" to="-482489197#2" fromLane="0" toLane="0"/>
    <connection from="-482489197#3" to="-92231498#6" fromLane="0" toLane="0"/>
    <connection from="-482489197#3" to="482489197#3" fromLane="0" toLane="0"/>

    <connection from="-482489200" to="482489197#1" fromLane="0" toLane="0"/>
    <connection from="-482489200" to="482489203" fromLane="0" toLane="0"/>
    <connection from="-482489200" to="482489200" fromLane="0" toLane="0"/>

    <connection from="-501452473" to="288867965" fromLane="0" toLane="0"/>
    <connection from="-501452473" to="501452473" fromLane="0" toLane="0"/>

    <connection from="-501452474#1" to="448826605" fromLane="0" toLane="0" keepClear="0"/>
    <connection from="-501452474#1" to="501452474#1" fromLane="0" toLane="0"/>

    <connection from="-501452474#2" to="-501452474#1" fromLane="0" toLane="0"/>
    <connection from="-501452474#2" to="-203508066#1" fromLane="0" toLane="0"/>
    <connection from="-501452474#2" to="501452474#2" fromLane="0" toLane="0"/>

    <connection from="-501452474#3" to="-501452474#2" fromLane="0" toLane="0" keepClear="0"/>
    <connection from="-501452474#3" to="501452474#3" fromLane="0" toLane="0"/>

    <connection from="-640294086#0" to="489458878#5" fromLane="0" toLane="1"/>
    <connection from="-640294086#0" to="640294086#0" fromLane="0" toLane="0"/>

    <connection from="-640294086#1" to="-696928590" fromLane="0" toLane="0"/>
    <connection from="-640294086#1" to="-640294086#0" fromLane="0" toLane="0"/>
    <connection from="-640294086#1" to="640294086#1" fromLane="0" toLane="0"/>

    <connection from="-640294088#0" to="640294088#0" fromLane="0" toLane="0"/>

    <connection from="-640294088#1" to="-640294088#0" fromLane="0" toLane="0"/>
    <connection from="-640294088#1" to="-835132638" fromLane="0" toLane="0"/>
    <connection from="-640294088#1" to="640294088#1" fromLane="0" toLane="0"/>

    <connection from="-640294088#2" to="-407965640" fromLane="0" toLane="0"/>
    <connection from="-640294088#2" to="-640294088#1" fromLane="0" toLane="0"/>
    <connection from="-640294088#2" to="640294088#2" fromLane="0" toLane="0"/>

    <connection from="-653839492" to="619763204#2" fromLane="0" toLane="0"/>
    <connection from="-653839492" to="619763204#2" fromLane="0" toLane="1"/>
    <connection from="-653839492" to="653839492" fromLane="0" toLane="0"/>

    <connection from="-696928590" to="696928590" fromLane="0" toLane="0"/>

    <connection from="-696928591" to="489458878#7" fromLane="0" toLane="0"/>
    <connection from="-696928591" to="696928591" fromLane="0" toLane="0"/>

    <connection from="-696986534#1" to="791433179" fromLane="0" toLane="0"/>
    <connection from="-696986534#1" to="651609801#2" fromLane="0" toLane="1"/>
    <connection from="-696986534#1" to="696986534#1" fromLane="0" toLane="0"/>

    <connection from="-698771553#0" to="698771555#4" fromLane="0" toLane="0"/>
    <connection from="-698771553#0" to="698771553#0" fromLane="0" toLane="0"/>

    <connection from="-698771553#1" to="-698771553#0" fromLane="0" toLane="0"/>
    <connection from="-698771553#1" to="-698771554" fromLane="0" toLane="0"/>
    <connection from="-698771553#1" to="698771553#1" fromLane="0" toLane="0"/>

    <connection from="-698771554" to="142700909#1" fromLane="0" toLane="0"/>
    <connection from="-698771554" to="698771554" fromLane="0" toLane="0"/>

    <connection from="-698776622" to="153713952#1" fromLane="0" toLane="0"/>
    <connection from="-698776622" to="698776622" fromLane="0" toLane="0"/>

    <connection from="-698776623" to="971768031#1" fromLane="0" toLane="0"/>
    <connection from="-698776623" to="-971768031#0" fromLane="0" toLane="0"/>
    <connection from="-698776623" to="698776623" fromLane="0" toLane="0"/>

    <connection from="-699020005" to="746255980#2" fromLane="0" toLane="0"/>
    <connection from="-699020005" to="699020007" fromLane="0" toLane="0"/>
    <connection from="-699020005" to="699020005" fromLane="0" toLane="0"/>

    <connection from="-699020007" to="746255980#2" fromLane="0" toLane="1"/>
    <connection from="-699020007" to="699020007" fromLane="0" toLane="0"/>

    <connection from="-699109699" to="699109699" fromLane="0" toLane="0"/>

    <connection from="-702937702" to="284348999#1" fromLane="0" toLane="0"/>
    <connection from="-702937702" to="-849778923" fromLane="0" toLane="0"/>
    <connection from="-702937702" to="-284348999#0" fromLane="0" toLane="0"/>

    <connection from="-727319016" to="-823766614#0" fromLane="0" toLane="0"/>
    <connection from="-727319016" to="727319018" fromLane="0" toLane="0"/>
    <connection from="-727319016" to="823766614#1" fromLane="0" toLane="0"/>

    <connection from="-727319018" to="727319018" fromLane="0" toLane="0"/>
    <connection from="-727319018" to="823766614#1" fromLane="0" toLane="0"/>
    <connection from="-727319018" to="-823766614#0" fromLane="0" toLane="0"/>

    <connection from="-727320901#0" to="727320900" fromLane="0" toLane="0"/>

    <connection from="-727320901#1" to="-727319016" fromLane="0" toLane="0"/>
    <connection from="-727320901#1" to="-727320901#0" fromLane="0" toLane="0"/>
    <connection from="-727320901#1" to="727320901#1" fromLane="0" toLane="0"/>

    <connection from="-727320902#0" to="280056104#3" fromLane="0" toLane="0"/>
    <connection from="-727320902#0" to="727320902#0" fromLane="0" toLane="0"/>

    <connection from="-737369329#0" to="-385513739#2" fromLane="0" toLane="0"/>
    <connection from="-737369329#0" to="385513739#3" fromLane="0" toLane="0"/>
    <connection from="-737369329#0" to="737369329#0" fromLane="0" toLane="0"/>

    <connection from="-737369329#1" to="153713955#1" fromLane="0" toLane="0"/>
    <connection from="-737369329#1" to="-737369329#0" fromLane="0" toLane="0"/>
    <connection from="-737369329#1" to="737369329#1" fromLane="0" toLane="0"/>

    <connection from="-737369329#2" to="-737369329#1" fromLane="0" toLane="0"/>
    <connection from="-737369329#2" to="-737369330" fromLane="0" toLane="0"/>
    <connection from="-737369329#2" to="737369329#2" fromLane="0" toLane="0"/>

    <connection from="-737369329#3" to="-737369329#2" fromLane="0" toLane="0"/>
    <connection from="-737369329#3" to="737369330" fromLane="0" toLane="0"/>
    <connection from="-737369329#3" to="737369329#3" fromLane="0" toLane="0"/>

    <connection from="-737369330" to="737369329#3" fromLane="0" toLane="0"/>
    <connection from="-737369330" to="-737369329#2" fromLane="0" toLane="0"/>
    <connection from="-737369330" to="737369330" fromLane="0" toLane="0"/>

    <connection from="-751759527" to="251689884#1" fromLane="0" toLane="0"/>
    <connection from="-751759527" to="-251689884#0" fromLane="0" toLane="0"/>
    <connection from="-751759527" to="751759527" fromLane="0" toLane="0"/>

    <connection from="-751759529" to="-751759527" fromLane="0" toLane="0"/>
    <connection from="-751759529" to="426418699#0" fromLane="0" toLane="0"/>
    <connection from="-751759529" to="751759529" fromLane="0" toLane="0"/>

    <connection from="-769711528#0" to="-769711528#1" fromLane="0" toLane="0"/>
    <connection from="-769711528#0" to="-653839492" fromLane="0" toLane="0"/>
    <connection from="-769711528#0" to="769711528#0" fromLane="0" toLane="0"/>

    <connection from="-769711528#1" to="-769711528#0" fromLane="0" toLane="0"/>
    <connection from="-769711528#1" to="971773106#0" fromLane="0" toLane="0"/>
    <connection from="-769711528#1" to="769711528#1" fromLane="0" toLane="0"/>

    <connection from="-769711530#0" to="769711530#0" fromLane="0" toLane="0"/>

    <connection from="-769711530#1" to="280056104#1" fromLane="0" toLane="0"/>
    <connection from="-769711530#1" to="-769711530#0" fromLane="0" toLane="0"/>
    <connection from="-769711530#1" to="769711530#1" fromLane="0" toLane="0"/>

    <connection from="-791433174#0" to="939531672#2" fromLane="0" toLane="1"/>
    <connection from="-791433174#0" to="791433174#0" fromLane="0" toLane="0"/>

    <connection from="-791433174#1" to="-791433174#0" fromLane="0" toLane="0"/>
    <connection from="-791433174#1" to="-791433179" fromLane="0" toLane="0"/>
    <connection from="-791433174#1" to="791433174#1" fromLane="0" toLane="0"/>

    <connection from="-791433179" to="651609801#2" fromLane="0" toLane="1"/>
    <connection from="-791433179" to="696986534#1" fromLane="0" toLane="0"/>
    <connection from="-791433179" to="791433179" fromLane="0" toLane="0"/>

    <connection from="-791456711" to="-837098517#1" fromLane="0" toLane="0"/>
    <connection from="-791456711" to="837098517#2" fromLane="0" toLane="0"/>
    <connection from="-791456711" to="791456711" fromLane="0" toLane="0"/>

    <connection from="-791456712" to="609819733" fromLane="0" toLane="1"/>
    <connection from="-791456712" to="609819733" fromLane="0" toLane="2"/>
    <connection from="-791456712" to="791456712" fromLane="0" toLane="0"/>

    <connection from="-794920337" to="619763204#1" fromLane="0" toLane="2"/>
    <connection from="-794920337" to="619763204#1" fromLane="0" toLane="3"/>
    <connection from="-794920337" to="794920337" fromLane="0" toLane="0"/>

    <connection from="-794921573" to="153713990#2" fromLane="0" toLane="1"/>
    <connection from="-794921573" to="794921573" fromLane="0" toLane="0"/>

    <connection from="-823766614#0" to="823766615" fromLane="0" toLane="0"/>

    <connection from="-835132638" to="835132638" fromLane="0" toLane="0"/>

    <connection from="-835137371#0" to="835137371#0" fromLane="0" toLane="0"/>

    <connection from="-835137372" to="4626684#6" fromLane="0" toLane="0"/>
    <connection from="-835137372" to="835137372" fromLane="0" toLane="0"/>

    <connection from="-837098517#0" to="385513740#1" fromLane="0" toLane="0"/>