<?xml version="1.0" encoding="UTF-8"?>

<!-- generated on 2021-11-05 01:16:11 by Eclipse SUMO netconvert Version 1.10.0
<configuration xmlns:xsi="http://www.w3.org/2001/XMLSchema-instance" xsi:noNamespaceSchemaLocation="http://sumo.dlr.de/xsd/netconvertConfiguration.xsd">

    <input>
        <osm-files value="osm_bbox.osm.xml"/>
    </input>

    <output>
        <plain-output-prefix value="osm"/>
    </output>

    <projection>
        <proj.utm value="true"/>
    </projection>

    <report>
        <aggregate-warnings value="5"/>
    </report>

</configuration>
-->

<connections version="1.9" xmlns:xsi="http://www.w3.org/2001/XMLSchema-instance" xsi:noNamespaceSchemaLocation="http://sumo.dlr.de/xsd/connections_file.xsd">
    <connection from="-105466454#0" to="105466454#0" fromLane="0" toLane="0"/>

    <connection from="-105466454#1" to="-105466474" fromLane="0" toLane="0"/>
    <connection from="-105466454#1" to="-105466454#0" fromLane="0" toLane="0"/>
    <connection from="-105466454#1" to="105466454#1" fromLane="0" toLane="0"/>

    <connection from="-105466454#2" to="-105466462" fromLane="0" toLane="0"/>
    <connection from="-105466454#2" to="-105466454#1" fromLane="0" toLane="0"/>
    <connection from="-105466454#2" to="105466454#2" fromLane="0" toLane="0"/>

    <connection from="-105466454#3" to="-105466465#0" fromLane="0" toLane="0"/>
    <connection from="-105466454#3" to="-105466454#2" fromLane="0" toLane="0"/>
    <connection from="-105466454#3" to="105466465#1" fromLane="0" toLane="0"/>
    <connection from="-105466454#3" to="105466454#3" fromLane="0" toLane="0"/>

    <connection from="-105466456" to="4626507#1" fromLane="0" toLane="0"/>
    <connection from="-105466456" to="105466456" fromLane="0" toLane="0"/>

    <connection from="-105466457" to="105466457" fromLane="0" toLane="0"/>

    <connection from="-105466458" to="105466461#5" fromLane="0" toLane="0"/>
    <connection from="-105466458" to="-105466461#4" fromLane="0" toLane="0"/>
    <connection from="-105466458" to="105466458" fromLane="0" toLane="0"/>

    <connection from="-105466459#0" to="-301579891#1" fromLane="0" toLane="0"/>
    <connection from="-105466459#0" to="105466459#0" fromLane="0" toLane="0"/>

    <connection from="-105466459#1" to="-105466459#0" fromLane="0" toLane="0"/>
    <connection from="-105466459#1" to="698818741" fromLane="0" toLane="0"/>
    <connection from="-105466459#1" to="105466459#1" fromLane="0" toLane="0"/>

    <connection from="-105466459#2" to="845197521" fromLane="0" toLane="0"/>
    <connection from="-105466459#2" to="-105466459#1" fromLane="0" toLane="0"/>
    <connection from="-105466459#2" to="105466459#2" fromLane="0" toLane="0"/>

    <connection from="-105466459#3" to="-105466457" fromLane="0" toLane="0"/>
    <connection from="-105466459#3" to="-105466459#2" fromLane="0" toLane="0"/>
    <connection from="-105466459#3" to="105466459#3" fromLane="0" toLane="0"/>

    <connection from="-105466459#4" to="698776743" fromLane="0" toLane="0"/>
    <connection from="-105466459#4" to="-105466459#3" fromLane="0" toLane="0"/>
    <connection from="-105466459#4" to="105466459#4" fromLane="0" toLane="0"/>

    <connection from="-105466461#0" to="4626507#3" fromLane="0" toLane="0"/>
    <connection from="-105466461#0" to="105466461#0" fromLane="0" toLane="0"/>

    <connection from="-105466461#1" to="-105466461#0" fromLane="0" toLane="0"/>
    <connection from="-105466461#1" to="-105466476" fromLane="0" toLane="0"/>
    <connection from="-105466461#1" to="105466461#1" fromLane="0" toLane="0"/>

    <connection from="-105466461#2" to="-105466461#1" fromLane="0" toLane="0"/>
    <connection from="-105466461#2" to="-105466456" fromLane="0" toLane="0"/>
    <connection from="-105466461#2" to="105466461#2" fromLane="0" toLane="0"/>

    <connection from="-105466461#3" to="-105466461#2" fromLane="0" toLane="0"/>
    <connection from="-105466461#3" to="-105466458" fromLane="0" toLane="0"/>
    <connection from="-105466461#3" to="105466461#3" fromLane="0" toLane="0"/>

    <connection from="-105466461#4" to="-195424496" fromLane="0" toLane="0"/>
    <connection from="-105466461#4" to="-105466461#3" fromLane="0" toLane="0"/>
    <connection from="-105466461#4" to="105466461#4" fromLane="0" toLane="0"/>

    <connection from="-105466461#5" to="-105466461#4" fromLane="0" toLane="0"/>
    <connection from="-105466461#5" to="105466458" fromLane="0" toLane="0"/>
    <connection from="-105466461#5" to="105466461#5" fromLane="0" toLane="0"/>

    <connection from="-105466462" to="105466462" fromLane="0" toLane="0"/>

    <connection from="-105466463" to="105466463" fromLane="0" toLane="0"/>

    <connection from="-105466465#0" to="105466465#0" fromLane="0" toLane="0"/>

    <connection from="-105466465#1" to="105466454#3" fromLane="0" toLane="0"/>
    <connection from="-105466465#1" to="-105466465#0" fromLane="0" toLane="0"/>
    <connection from="-105466465#1" to="-105466454#2" fromLane="0" toLane="0"/>
    <connection from="-105466465#1" to="105466465#1" fromLane="0" toLane="0"/>

    <connection from="-105466466#0" to="939531674#0" fromLane="0" toLane="0"/>
    <connection from="-105466466#0" to="105466466#0" fromLane="0" toLane="0"/>

    <connection from="-105466466#1" to="195424496" fromLane="0" toLane="0"/>
    <connection from="-105466466#1" to="-105466466#0" fromLane="0" toLane="0"/>
    <connection from="-105466466#1" to="105466466#1" fromLane="0" toLane="0"/>

    <connection from="-105466474" to="-698818741" fromLane="0" toLane="0"/>
    <connection from="-105466474" to="105466474" fromLane="0" toLane="0"/>

    <connection from="-105466476" to="4626507#2" fromLane="0" toLane="0"/>
    <connection from="-105466476" to="105466476" fromLane="0" toLane="0"/>

    <connection from="-105491009#0" to="105491009#0" fromLane="0" toLane="0"/>

    <connection from="-105491009#1" to="791433180" fromLane="0" toLane="0"/>
    <connection from="-105491009#1" to="-105491009#0" fromLane="0" toLane="0"/>
    <connection from="-105491009#1" to="105491009#1" fromLane="0" toLane="0"/>

    <connection from="-105491009#2" to="791433181" fromLane="0" toLane="0"/>
    <connection from="-105491009#2" to="-105491009#1" fromLane="0" toLane="0"/>
    <connection from="-105491009#2" to="105491009#2" fromLane="0" toLane="0"/>

    <connection from="-105917002#0" to="-865548463" fromLane="0" toLane="0"/>

    <connection from="-105917002#1" to="865548463" fromLane="0" toLane="0"/>
    <connection from="-105917002#1" to="-105917002#0" fromLane="0" toLane="0"/>
    <connection from="-105917002#1" to="105917002#1" fromLane="0" toLane="0"/>

    <connection from="-105917006" to="105917006" fromLane="0" toLane="0"/>

    <connection from="-105917012" to="105917012" fromLane="0" toLane="0"/>

    <connection from="-105917013#0" to="-302015099#2" fromLane="0" toLane="0"/>
    <connection from="-105917013#0" to="302015100#0" fromLane="0" toLane="0"/>
    <connection from="-105917013#0" to="105917013#0" fromLane="0" toLane="0"/>

    <connection from="-105917013#1" to="105917017#0" fromLane="0" toLane="0"/>
    <connection from="-105917013#1" to="-105917013#0" fromLane="0" toLane="0"/>
    <connection from="-105917013#1" to="105917013#1" fromLane="0" toLane="0"/>

    <connection from="-105917017#0" to="-105917013#0" fromLane="0" toLane="0"/>
    <connection from="-105917017#0" to="105917013#1" fromLane="0" toLane="0"/>
    <connection from="-105917017#0" to="105917017#0" fromLane="0" toLane="0"/>

    <connection from="-105917017#1" to="-105917017#0" fromLane="0" toLane="0"/>
    <connection from="-105917017#1" to="838946347" fromLane="0" toLane="0"/>
    <connection from="-105917017#1" to="105917017#1" fromLane="0" toLane="0"/>

    <connection from="-105917020" to="-302015099#0" fromLane="0" toLane="0"/>
    <connection from="-105917020" to="302015099#1" fromLane="0" toLane="0"/>
    <connection from="-105917020" to="105917020" fromLane="0" toLane="0"/>

    <connection from="-105917027" to="-302015100#2" fromLane="0" toLane="0"/>
    <connection from="-105917027" to="302015100#3" fromLane="0" toLane="0"/>
    <connection from="-105917027" to="105917027" fromLane="0" toLane="0"/>

    <connection from="-105917031#0" to="105917031#0" fromLane="0" toLane="0"/>

    <connection from="-105917031#1" to="-105917031#0" fromLane="0" toLane="0"/>
    <connection from="-105917031#1" to="-309002180" fromLane="0" toLane="0"/>
    <connection from="-105917031#1" to="105917031#1" fromLane="0" toLane="0"/>

    <connection from="-105917036#0" to="252952241#6" fromLane="0" toLane="0"/>
    <connection from="-105917036#0" to="-252952241#5" fromLane="0" toLane="0"/>
    <connection from="-105917036#0" to="105917036#0" fromLane="0" toLane="0"/>

    <connection from="-105917036#1" to="-105917036#0" fromLane="0" toLane="0"/>
    <connection from="-105917036#1" to="-417125046#1" fromLane="0" toLane="0"/>
    <connection from="-105917036#1" to="105917036#1" fromLane="0" toLane="0"/>

    <connection from="-105917036#2" to="-105917066#3" fromLane="0" toLane="0"/>
    <connection from="-105917036#2" to="-105917036#1" fromLane="0" toLane="0"/>
    <connection from="-105917036#2" to="105917045#0" fromLane="0" toLane="0"/>
    <connection from="-105917036#2" to="105917036#2" fromLane="0" toLane="0"/>

    <connection from="-105917036#3" to="-105917036#2" fromLane="0" toLane="0"/>
    <connection from="-105917036#3" to="-286619639#1" fromLane="0" toLane="0"/>
    <connection from="-105917036#3" to="105917036#3" fromLane="0" toLane="0"/>

    <connection from="-105917037#0" to="105917037#0" fromLane="0" toLane="0"/>

    <connection from="-105917037#1" to="-105917037#0" fromLane="0" toLane="0"/>
    <connection from="-105917037#1" to="105917052#0" fromLane="0" toLane="0"/>
    <connection from="-105917037#1" to="105917037#1" fromLane="0" toLane="0"/>

    <connection from="-105917039" to="838073628" fromLane="0" toLane="0"/>
    <connection from="-105917039" to="-254068764#2" fromLane="0" toLane="0"/>
    <connection from="-105917039" to="105917039" fromLane="0" toLane="0"/>

    <connection from="-105917045#0" to="105917036#2" fromLane="0" toLane="0"/>
    <connection from="-105917045#0" to="-105917066#3" fromLane="0" toLane="0"/>
    <connection from="-105917045#0" to="-105917036#1" fromLane="0" toLane="0"/>
    <connection from="-105917045#0" to="105917045#0" fromLane="0" toLane="0"/>

    <connection from="-105917045#1" to="-105917045#0" fromLane="0" toLane="0"/>
    <connection from="-105917045#1" to="-967445034" fromLane="0" toLane="0"/>
    <connection from="-105917045#1" to="105917045#1" fromLane="0" toLane="0"/>

    <connection from="-105917045#2" to="-105917045#1" fromLane="0" toLane="0"/>
    <connection from="-105917045#2" to="105917054" fromLane="0" toLane="0"/>
    <connection from="-105917045#2" to="105917045#2" fromLane="0" toLane="0"/>

    <connection from="-105917045#3" to="-417122302" fromLane="0" toLane="0"/>
    <connection from="-105917045#3" to="-105917045#2" fromLane="0" toLane="0"/>
    <connection from="-105917045#3" to="-633773702" fromLane="0" toLane="0"/>
    <connection from="-105917045#3" to="105917045#3" fromLane="0" toLane="0"/>

    <connection from="-105917047#0" to="-309002203" fromLane="0" toLane="0"/>

    <connection from="-105917047#1" to="-105917047#0" fromLane="0" toLane="0"/>
    <connection from="-105917047#1" to="-105917012" fromLane="0" toLane="0"/>
    <connection from="-105917047#1" to="105917047#1" fromLane="0" toLane="0"/>

    <connection from="-105917047#2" to="-105917047#1" fromLane="0" toLane="0"/>
    <connection from="-105917047#2" to="-105917031#1" fromLane="0" toLane="0"/>
    <connection from="-105917047#2" to="-105917051" fromLane="0" toLane="0"/>
    <connection from="-105917047#2" to="105917047#2" fromLane="0" toLane="0"/>

    <connection from="-105917051" to="-967448540" fromLane="0" toLane="0" keepClear="0"/>

    <connection from="-105917052#0" to="105917037#1" fromLane="0" toLane="0"/>
    <connection from="-105917052#0" to="-105917037#0" fromLane="0" toLane="0"/>
    <connection from="-105917052#0" to="105917052#0" fromLane="0" toLane="0"/>

    <connection from="-105917052#1" to="105917066#1" fromLane="0" toLane="0"/>
    <connection from="-105917052#1" to="-105917052#0" fromLane="0" toLane="0"/>
    <connection from="-105917052#1" to="-105917066#0" fromLane="0" toLane="0"/>
    <connection from="-105917052#1" to="105917052#1" fromLane="0" toLane="0"/>

    <connection from="-105917052#2" to="-967462292" fromLane="0" toLane="0"/>
    <connection from="-105917052#2" to="-105917052#1" fromLane="0" toLane="0"/>
    <connection from="-105917052#2" to="105917052#2" fromLane="0" toLane="0"/>

    <connection from="-105917054" to="105917045#2" fromLane="0" toLane="0"/>
    <connection from="-105917054" to="-105917045#1" fromLane="0" toLane="0"/>
    <connection from="-105917054" to="105917054" fromLane="0" toLane="0"/>

    <connection from="-105917056" to="302015100#4" fromLane="0" toLane="0"/>
    <connection from="-105917056" to="-302015100#3" fromLane="0" toLane="0"/>
    <connection from="-105917056" to="105917056" fromLane="0" toLane="0"/>

    <connection from="-105917058" to="-302015100#0" fromLane="0" toLane="0"/>
    <connection from="-105917058" to="302015100#1" fromLane="0" toLane="0"/>
    <connection from="-105917058" to="105917058" fromLane="0" toLane="0"/>

    <connection from="-105917065" to="-967446883" fromLane="0" toLane="0"/>
    <connection from="-105917065" to="105917065" fromLane="0" toLane="0"/>

    <connection from="-105917066#0" to="105917066#0" fromLane="0" toLane="0"/>

    <connection from="-105917066#1" to="-105917052#0" fromLane="0" toLane="0"/>
    <connection from="-105917066#1" to="-105917066#0" fromLane="0" toLane="0"/>
    <connection from="-105917066#1" to="105917052#1" fromLane="0" toLane="0"/>
    <connection from="-105917066#1" to="105917066#1" fromLane="0" toLane="0"/>

    <connection from="-105917066#2" to="-105917037#1" fromLane="0" toLane="0"/>
    <connection from="-105917066#2" to="-105917066#1" fromLane="0" toLane="0"/>
    <connection from="-105917066#2" to="105917066#2" fromLane="0" toLane="0"/>

    <connection from="-105917066#3" to="286619595" fromLane="0" toLane="0"/>
    <connection from="-105917066#3" to="-105917066#2" fromLane="0" toLane="0"/>
    <connection from="-105917066#3" to="105917066#3" fromLane="0" toLane="0"/>

    <connection from="-105922658" to="-967448539#1" fromLane="0" toLane="0"/>
    <connection from="-105922658" to="967448539#2" fromLane="0" toLane="0"/>
    <connection from="-105922658" to="105922658" fromLane="0" toLane="0"/>

    <connection from="-105922662#0" to="640139170" fromLane="0" toLane="0"/>

    <connection from="-105922662#1" to="105922677#4" fromLane="0" toLane="0"/>
    <connection from="-105922662#1" to="-105922662#0" fromLane="0" toLane="0"/>
    <connection from="-105922662#1" to="-105922677#3" fromLane="0" toLane="0"/>
    <connection from="-105922662#1" to="105922662#1" fromLane="0" toLane="0"/>

    <connection from="-105922662#2" to="-105922662#1" fromLane="0" toLane="0"/>
    <connection from="-105922662#2" to="-105922667#1" fromLane="0" toLane="0"/>
    <connection from="-105922662#2" to="105922662#2" fromLane="0" toLane="0"/>

    <connection from="-105922662#3" to="-105922662#2" fromLane="0" toLane="0"/>
    <connection from="-105922662#3" to="-252952241#6" fromLane="0" toLane="0"/>
    <connection from="-105922662#3" to="105922662#3" fromLane="0" toLane="0"/>

    <connection from="-105922667#0" to="-252952241#4" fromLane="0" toLane="0"/>
    <connection from="-105922667#0" to="252952241#5" fromLane="0" toLane="0"/>
    <connection from="-105922667#0" to="105922667#0" fromLane="0" toLane="0"/>

    <connection from="-105922667#1" to="-489099756" fromLane="0" toLane="0"/>
    <connection from="-105922667#1" to="-105922667#0" fromLane="0" toLane="0"/>
    <connection from="-105922667#1" to="105922667#1" fromLane="0" toLane="0"/>

    <connection from="-105922672" to="838499494#0" fromLane="0" toLane="0"/>
    <connection from="-105922672" to="838509996" fromLane="0" toLane="0"/>
    <connection from="-105922672" to="105922672" fromLane="0" toLane="0"/>

    <connection from="-105922677#0" to="971673504#3" fromLane="0" toLane="0"/>
    <connection from="-105922677#0" to="842533982" fromLane="0" toLane="0"/>
    <connection from="-105922677#0" to="-971673504#2" fromLane="0" toLane="1"/>
    <connection from="-105922677#0" to="105922677#0" fromLane="0" toLane="0"/>

    <connection from="-105922677#1" to="-105922677#0" fromLane="0" toLane="0"/>
    <connection from="-105922677#1" to="640139172" fromLane="0" toLane="0"/>
    <connection from="-105922677#1" to="105922677#1" fromLane="0" toLane="0"/>

    <connection from="-105922677#2" to="-105922677#1" fromLane="0" toLane="0"/>
    <connection from="-105922677#2" to="-252952899#1" fromLane="0" toLane="0"/>
    <connection from="-105922677#2" to="105922677#2" fromLane="0" toLane="0"/>

    <connection from="-105922677#3" to="-105922677#2" fromLane="0" toLane="0"/>
    <connection from="-105922677#3" to="-417122304" fromLane="0" toLane="0"/>
    <connection from="-105922677#3" to="105922677#3" fromLane="0" toLane="0"/>

    <connection from="-105922677#4" to="-105922662#0" fromLane="0" toLane="0"/>
    <connection from="-105922677#4" to="-105922677#3" fromLane="0" toLane="0"/>
    <connection from="-105922677#4" to="105922662#1" fromLane="0" toLane="0"/>
    <connection from="-105922677#4" to="105922677#4" fromLane="0" toLane="0"/>

    <connection from="-105922682#0" to="-619206656" fromLane="0" toLane="0"/>

    <connection from="-105922682#1" to="619206654" fromLane="0" toLane="0"/>
    <connection from="-105922682#1" to="-105922682#0" fromLane="0" toLane="0"/>
    <connection from="-105922682#1" to="105922682#1" fromLane="0" toLane="0"/>

    <connection from="-105922682#2" to="-105922682#1" fromLane="0" toLane="0"/>
    <connection from="-105922682#2" to="967542391" fromLane="0" toLane="0"/>
    <connection from="-105922682#2" to="105922682#2" fromLane="0" toLane="0"/>

    <connection from="-105922682#3" to="619206655#0" fromLane="0" toLane="0"/>
    <connection from="-105922682#3" to="-105922682#2" fromLane="0" toLane="0"/>
    <connection from="-105922682#3" to="105922682#3" fromLane="0" toLane="0"/>

    <connection from="-105922682#4" to="838499496#0" fromLane="0" toLane="0"/>
    <connection from="-105922682#4" to="-105922682#3" fromLane="0" toLane="0"/>
    <connection from="-105922682#4" to="967469861" fromLane="0" toLane="0"/>
    <connection from="-105922682#4" to="105922682#4" fromLane="0" toLane="0"/>

    <connection from="-105922682#5" to="-105922682#4" fromLane="0" toLane="0"/>
    <connection from="-105922682#5" to="-838499500#2" fromLane="0" toLane="0"/>
    <connection from="-105922682#5" to="105922682#5" fromLane="0" toLane="0"/>

    <connection from="-105922682#6" to="838499498#0" fromLane="0" toLane="0"/>
    <connection from="-105922682#6" to="-105922682#5" fromLane="0" toLane="0"/>
    <connection from="-105922682#6" to="105922682#6" fromLane="0" toLane="0"/>

    <connection from="-105922682#7" to="838515708" fromLane="0" toLane="0"/>
    <connection from="-105922682#7" to="-105922682#6" fromLane="0" toLane="0"/>
    <connection from="-105922682#7" to="105922682#7" fromLane="0" toLane="0"/>

    <connection from="-111051582" to="-294274827" fromLane="0" toLane="0"/>

    <connection from="-114975867#0" to="114975879" fromLane="0" toLane="0"/>
    <connection from="-114975867#0" to="114975867#0" fromLane="0" toLane="0"/>

    <connection from="-114975867#1" to="-301594024" fromLane="0" toLane="0"/>
    <connection from="-114975867#1" to="-114975867#0" fromLane="0" toLane="0"/>
    <connection from="-114975867#1" to="114975867#1" fromLane="0" toLane="0"/>

    <connection from="-114975867#2" to="-114975867#1" fromLane="0" toLane="0"/>
    <connection from="-114975867#2" to="259325307" fromLane="0" toLane="0"/>
    <connection from="-114975867#2" to="114975867#2" fromLane="0" toLane="0"/>

    <connection from="-114975868" to="114975872#2" fromLane="0" toLane="0"/>
    <connection from="-114975868" to="-114975872#1" fromLane="0" toLane="0"/>
    <connection from="-114975868" to="114975868" fromLane="0" toLane="0"/>

    <connection from="-114975870" to="114975882#2" fromLane="0" toLane="0"/>
    <connection from="-114975870" to="-114975882#1" fromLane="0" toLane="0"/>
    <connection from="-114975870" to="114975870" fromLane="0" toLane="0"/>

    <connection from="-114975871" to="640300293" fromLane="0" toLane="0"/>
    <connection from="-114975871" to="-301594523" fromLane="0" toLane="0"/>
    <connection from="-114975871" to="114975871" fromLane="0" toLane="0"/>

    <connection from="-114975872#0" to="-114975881#0" fromLane="0" toLane="0"/>
    <connection from="-114975872#0" to="114975881#1" fromLane="0" toLane="0"/>
    <connection from="-114975872#0" to="114975872#0" fromLane="0" toLane="0"/>

    <connection from="-114975872#1" to="-114975872#0" fromLane="0" toLane="0"/>
    <connection from="-114975872#1" to="-114975881#1" fromLane="0" toLane="0"/>
    <connection from="-114975872#1" to="114975872#1" fromLane="0" toLane="0"/>

    <connection from="-114975872#2" to="-114975872#1" fromLane="0" toLane="0"/>
    <connection from="-114975872#2" to="114975868" fromLane="0" toLane="0"/>
    <connection from="-114975872#2" to="114975872#2" fromLane="0" toLane="0"/>

    <connection from="-114975872#3" to="-114975872#2" fromLane="0" toLane="0"/>
    <connection from="-114975872#3" to="-114975868" fromLane="0" toLane="0"/>
    <connection from="-114975872#3" to="114975872#3" fromLane="0" toLane="0"/>

    <connection from="-114975872#4" to="-114975870" fromLane="0" toLane="0"/>
    <connection from="-114975872#4" to="-114975872#3" fromLane="0" toLane="0"/>
    <connection from="-114975872#4" to="114975872#4" fromLane="0" toLane="0"/>

    <connection from="-114975873#0" to="-972125929" fromLane="0" toLane="0"/>

    <connection from="-114975873#1" to="-952066924" fromLane="0" toLane="0"/>
    <connection from="-114975873#1" to="-114975873#0" fromLane="0" toLane="0"/>
    <connection from="-114975873#1" to="114975873#1" fromLane="0" toLane="0"/>

    <connection from="-114975873#2" to="-114975873#1" fromLane="0" toLane="0"/>
    <connection from="-114975873#2" to="-845096029" fromLane="0" toLane="0"/>
    <connection from="-114975873#2" to="114975873#2" fromLane="0" toLane="0"/>

    <connection from="-114975873#3" to="-114975873#2" fromLane="0" toLane="0"/>
    <connection from="-114975873#3" to="640131436" fromLane="0" toLane="0"/>
    <connection from="-114975873#3" to="114975873#3" fromLane="0" toLane="0"/>

    <connection from="-114975873#4" to="-967448541" fromLane="0" toLane="0"/>
    <connection from="-114975873#4" to="-114975873#3" fromLane="0" toLane="0"/>
    <connection from="-114975873#4" to="114975873#4" fromLane="0" toLane="0"/>

    <connection from="-114975873#5" to="-489099748#3" fromLane="0" toLane="0"/>
    <connection from="-114975873#5" to="-114975873#4" fromLane="0" toLane="0"/>
    <connection from="-114975873#5" to="114975873#5" fromLane="0" toLane="0"/>

    <connection from="-114975877#0" to="-619206649#2" fromLane="0" toLane="0"/>
    <connection from="-114975877#0" to="-114975880" fromLane="0" toLane="0"/>
    <connection from="-114975877#0" to="114975877#0" fromLane="0" toLane="0"/>

    <connection from="-114975877#1" to="-114975877#0" fromLane="0" toLane="0"/>
    <connection from="-114975877#1" to="633770997" fromLane="0" toLane="0"/>
    <connection from="-114975877#1" to="114975877#1" fromLane="0" toLane="0"/>

    <connection from="-114975877#2" to="633770996#0" fromLane="0" toLane="0"/>
    <connection from="-114975877#2" to="-114975877#1" fromLane="0" toLane="0"/>
    <connection from="-114975877#2" to="114975877#2" fromLane="0" toLane="0"/>

    <connection from="-114975880" to="-27092050#8" fromLane="0" toLane="0"/>

    <connection from="-114975881#0" to="114975876#2" fromLane="0" toLane="0"/>
    <connection from="-114975881#0" to="114975881#0" fromLane="0" toLane="0"/>

    <connection from="-114975881#1" to="114975872#0" fromLane="0" toLane="0"/>
    <connection from="-114975881#1" to="-114975881#0" fromLane="0" toLane="0"/>
    <connection from="-114975881#1" to="114975881#1" fromLane="0" toLane="0"/>

    <connection from="-114975882#0" to="746651155" fromLane="0" toLane="0"/>
    <connection from="-114975882#0" to="-114975867#2" fromLane="0" toLane="0"/>
    <connection from="-114975882#0" to="114975882#0" fromLane="0" toLane="0"/>

    <connection from="-114975882#1" to="-114975882#0" fromLane="0" toLane="0"/>
    <connection from="-114975882#1" to="-259325307" fromLane="0" toLane="0"/>
    <connection from="-114975882#1" to="114975882#1" fromLane="0" toLane="0"/>

    <connection from="-114975882#2" to="-114975882#1" fromLane="0" toLane="0"/>
    <connection from="-114975882#2" to="114975870" fromLane="0" toLane="0"/>
    <connection from="-114975882#2" to="114975882#2" fromLane="0" toLane="0"/>

    <connection from="-120877545#0" to="523134221" fromLane="0" toLane="0"/>
    <connection from="-120877545#0" to="127011610" fromLane="0" toLane="0"/>
    <connection from="-120877545#0" to="120877545#0" fromLane="0" toLane="0"/>

    <connection from="-120877545#1" to="-120877545#0" fromLane="0" toLane="0"/>
    <connection from="-120877545#1" to="127011603" fromLane="0" toLane="0"/>
    <connection from="-120877545#1" to="120877545#1" fromLane="0" toLane="0"/>

    <connection from="-123811462" to="304026509#1" fromLane="0" toLane="0"/>
    <connection from="-123811462" to="-304026509#0" fromLane="0" toLane="0"/>
    <connection from="-123811462" to="123811462" fromLane="0" toLane="0"/>

    <connection from="-124131538" to="124131538" fromLane="0" toLane="0"/>

    <connection from="-124272721" to="967556565#0" fromLane="0" toLane="0"/>
    <connection from="-124272721" to="-219982260" fromLane="0" toLane="0"/>
    <connection from="-124272721" to="124272721" fromLane="0" toLane="0"/>

    <connection from="-124272728#0" to="124272773#2" fromLane="0" toLane="0"/>
    <connection from="-124272728#0" to="-124272773#1" fromLane="0" toLane="0"/>
    <connection from="-124272728#0" to="124272728#0" fromLane="0" toLane="0"/>

    <connection from="-124272728#1" to="-124272793" fromLane="0" toLane="0"/>
    <connection from="-124272728#1" to="-124272728#0" fromLane="0" toLane="0"/>
    <connection from="-124272728#1" to="124272728#1" fromLane="0" toLane="0"/>

    <connection from="-124272728#2" to="-124272728#1" fromLane="0" toLane="0"/>
    <connection from="-124272728#2" to="124272794" fromLane="0" toLane="0"/>
    <connection from="-124272728#2" to="124272728#2" fromLane="0" toLane="0"/>

    <connection from="-124272732#0" to="-219982261#5" fromLane="0" toLane="0"/>
    <connection from="-124272732#0" to="219982261#6" fromLane="0" toLane="0"/>
    <connection from="-124272732#0" to="124272732#0" fromLane="0" toLane="0"/>

    <connection from="-124272732#1" to="-124272732#0" fromLane="0" toLane="0"/>
    <connection from="-124272732#1" to="-124272747" fromLane="0" toLane="0"/>
    <connection from="-124272732#1" to="124272732#1" fromLane="0" toLane="0"/>

    <connection from="-124272736#0" to="124278024#2" fromLane="0" toLane="0"/>

    <connection from="-124272736#1" to="-850752785#4" fromLane="0" toLane="0"/>
    <connection from="-124272736#1" to="219982262#0" fromLane="0" toLane="0"/>
    <connection from="-124272736#1" to="-124272736#0" fromLane="0" toLane="0"/>
    <connection from="-124272736#1" to="124272736#1" fromLane="0" toLane="0"/>

    <connection from="-124272736#2" to="-124272752#0" fromLane="0" toLane="0"/>
    <connection from="-124272736#2" to="-124272736#1" fromLane="0" toLane="0"/>
    <connection from="-124272736#2" to="124272752#1" fromLane="0" toLane="0"/>
    <connection from="-124272736#2" to="124272736#2" fromLane="0" toLane="0"/>

    <connection from="-124272736#3" to="-124272736#2" fromLane="0" toLane="0"/>
    <connection from="-124272736#3" to="124272747" fromLane="0" toLane="0"/>
    <connection from="-124272736#3" to="124272736#3" fromLane="0" toLane="0"/>

    <connection from="-124272740#0" to="-219982261#3" fromLane="0" toLane="0"/>
    <connection from="-124272740#0" to="219982261#4" fromLane="0" toLane="0"/>
    <connection from="-124272740#0" to="124272740#0" fromLane="0" toLane="0"/>

    <connection from="-124272740#1" to="-124272762" fromLane="0" toLane="0"/>
    <connection from="-124272740#1" to="-124272740#0" fromLane="0" toLane="0"/>
    <connection from="-124272740#1" to="124272740#1" fromLane="0" toLane="0"/>

    <connection from="-124272747" to="124272736#3" fromLane="0" toLane="0"/>
    <connection from="-124272747" to="-124272736#2" fromLane="0" toLane="0"/>
    <connection from="-124272747" to="124272747" fromLane="0" toLane="0"/>

    <connection from="-124272750" to="219982262#4" fromLane="0" toLane="0"/>
    <connection from="-124272750" to="-219982262#3" fromLane="0" toLane="0"/>
    <connection from="-124272750" to="124272750" fromLane="0" toLane="0"/>

    <connection from="-124272751" to="850752785#3" fromLane="0" toLane="0"/>
    <connection from="-124272751" to="-850752785#2" fromLane="0" toLane="0"/>
    <connection from="-124272751" to="124272751" fromLane="0" toLane="0"/>

    <connection from="-124272752#0" to="-219982261#7" fromLane="0" toLane="0"/>
    <connection from="-124272752#0" to="219982261#8" fromLane="0" toLane="0"/>
    <connection from="-124272752#0" to="124272752#0" fromLane="0" toLane="0"/>

    <connection from="-124272752#1" to="124272736#2" fromLane="0" toLane="0"/>
    <connection from="-124272752#1" to="-124272752#0" fromLane="0" toLane="0"/>