<?xml version="1.0" encoding="UTF-8"?>

<!-- generated on 2021-11-06 01:11:43 by Eclipse SUMO netedit Version 1.10.0
<configuration xmlns:xsi="http://www.w3.org/2001/XMLSchema-instance" xsi:noNamespaceSchemaLocation="http://sumo.dlr.de/xsd/netconvertConfiguration.xsd">

    <input>
        <sumo-net-file value="/home/pedro/Documents/USP/Mestrado/MAC5910/Article/Workspace/veins/examples/veins/osm.net.xml"/>
    </input>

    <output>
        <output-file value="/home/pedro/Documents/USP/Mestrado/MAC5910/Article/Workspace/veins/examples/veins/osm.net.xml"/>
        <plain-output-prefix value="/home/pedro/Documents/USP/Mestrado/MAC5910/Article/Workspace/veins/examples/veins/osm"/>
        <output.street-names value="true"/>
    </output>

    <processing>
        <geometry.min-radius.fix.railways value="false"/>
        <geometry.max-grade.fix value="false"/>
        <offset.disable-normalization value="true"/>
        <lefthand value="false"/>
    </processing>

    <junctions>
        <no-turnarounds value="true"/>
        <junctions.corner-detail value="5"/>
        <junctions.limit-turn-speed value="5.5"/>
        <rectangular-lane-cut value="false"/>
    </junctions>

    <pedestrian>
        <walkingareas value="false"/>
    </pedestrian>

    <report>
        <aggregate-warnings value="5"/>
    </report>

</configuration>
-->

<tlLogics version="1.9" xmlns:xsi="http://www.w3.org/2001/XMLSchema-instance" xsi:noNamespaceSchemaLocation="http://sumo.dlr.de/xsd/tllogic_file.xsd">
</tlLogics>
