<?xml version="1.0" encoding="UTF-8"?>

<!-- generated on 2021-11-06 01:11:43 by Eclipse SUMO netedit Version 1.10.0
<configuration xmlns:xsi="http://www.w3.org/2001/XMLSchema-instance" xsi:noNamespaceSchemaLocation="http://sumo.dlr.de/xsd/netconvertConfiguration.xsd">

    <input>
        <sumo-net-file value="/home/pedro/Documents/USP/Mestrado/MAC5910/Article/Workspace/veins/simulations/veins/osm.net.xml"/>
    </input>

    <output>
        <output-file value="/home/pedro/Documents/USP/Mestrado/MAC5910/Article/Workspace/veins/simulations/veins/osm.net.xml"/>
        <plain-output-prefix value="/home/pedro/Documents/USP/Mestrado/MAC5910/Article/Workspace/veins/simulations/veins/osm"/>
        <output.street-names value="true"/>
    </output>

    <processing>
        <geometry.min-radius.fix.railways value="false"/>
        <geometry.max-grade.fix value="false"/>
        <offset.disable-normalization value="true"/>
        <lefthand value="false"/>
    </processing>

    <junctions>
        <no-turnarounds value="true"/>
        <junctions.corner-detail value="5"/>
        <junctions.limit-turn-speed value="5.5"/>
        <rectangular-lane-cut value="false"/>
    </junctions>

    <pedestrian>
        <walkingareas value="false"/>
    </pedestrian>

    <report>
        <aggregate-warnings value="5"/>
    </report>

</configuration>
-->

<edges version="1.9" xmlns:xsi="http://www.w3.org/2001/XMLSchema-instance" xsi:noNamespaceSchemaLocation="http://sumo.dlr.de/xsd/edges_file.xsd">
    <edge id="-105466456" from="1214771440" to="1214771201" priority="1" type="highway.track" numLanes="1" speed="5.56" shape="11669.57,11869.65 11647.88,11866.01 11633.07,11871.28 11603.77,11903.03 11586.67,11918.07 11551.20,11912.81 11529.49,11912.70" allow="pedestrian motorcycle moped bicycle">
        <lane index="0">
            <param key="origId" value="105466456"/>
        </lane>
    </edge>
    <edge id="-105466458" from="1214771059" to="1214770941" priority="1" type="highway.track" numLanes="1" speed="5.56" shape="11849.26,10500.77 11838.61,10475.28 11826.84,10451.24 11805.30,10421.13 11802.30,10395.02 11812.30,10276.12 11826.33,10190.42 11830.52,10155.69 11843.76,10144.41 11862.93,10139.68" allow="pedestrian motorcycle moped bicycle">
        <lane index="0">
            <param key="origId" value="105466458"/>
        </lane>
    </edge>
    <edge id="-105466461#0" from="1214771162" to="1214771721" priority="1" type="highway.track" numLanes="1" speed="5.56" shape="11634.01,12237.78 11614.74,12413.96 11607.03,12522.58 11599.00,12609.44 11585.64,12735.93 11586.50,12757.13 11573.28,12818.94 11568.11,12893.89 11558.46,12979.12 11559.65,13022.06 11558.82,13100.31 11544.89,13125.16 11520.86,13122.74 11514.37,13116.14 11487.14,13107.70 11446.21,13101.83 11430.98,13094.60 11413.20,13085.79" allow="pedestrian motorcycle moped bicycle">
        <lane index="0">
            <param key="origId" value="105466461"/>
        </lane>
    </edge>
    <edge id="-105466461#1" from="1214771440" to="1214771162" priority="1" type="highway.track" numLanes="1" speed="5.56" shape="11669.57,11869.65 11664.78,11922.16 11658.06,11937.31 11661.05,11963.96 11648.40,12125.78 11636.97,12173.48 11634.01,12237.78" allow="pedestrian motorcycle moped bicycle">
        <lane index="0">
            <param key="origId" value="105466461"/>
        </lane>
    </edge>
    <edge id="-105466461#2" from="1214771059" to="1214771440" priority="1" type="highway.track" numLanes="1" speed="5.56" shape="11849.26,10500.77 11844.85,10504.14 11815.50,10541.33 11804.32,10565.12 11782.26,10790.38 11760.33,11002.62 11749.47,11099.24 11741.82,11150.78 11737.09,11184.42 11727.16,11245.17 11730.83,11259.34 11718.24,11416.25 11707.67,11536.78 11697.64,11555.15 11697.78,11593.19 11678.21,11789.16 11672.03,11804.86 11674.05,11820.64 11669.57,11869.65" allow="pedestrian motorcycle moped bicycle">
        <lane index="0">
            <param key="origId" value="105466461"/>
        </lane>
    </edge>
    <edge id="-105466461#3" from="1214771561" to="1214771059" priority="1" type="highway.track" numLanes="1" speed="5.56" shape="12039.93,10220.66 12039.58,10228.54 12022.37,10305.52 12005.84,10369.46 11952.90,10416.17 11934.78,10423.05 11915.40,10448.38 11891.13,10468.77 11849.26,10500.77" allow="pedestrian motorcycle moped bicycle">
        <lane index="0">
            <param key="origId" value="105466461"/>
        </lane>
    </edge>
    <edge id="-105466461#4" from="1214770941" to="1214771561" priority="1" type="highway.track" numLanes="1" speed="5.56" shape="11862.93,10139.68 11908.46,10226.06 11913.61,10232.35 11923.93,10238.43 11933.75,10240.18 11944.95,10238.14 11971.05,10224.28 11982.02,10220.04 12015.88,10222.31 12039.93,10220.66" allow="pedestrian motorcycle moped bicycle">
        <lane index="0">
            <param key="origId" value="105466461"/>
        </lane>
    </edge>
    <edge id="-105466461#5" from="1214770992" to="1214770941" priority="1" type="highway.track" numLanes="1" speed="5.56" shape="11725.12,9960.67 11775.31,10003.50 11809.95,10034.30 11847.39,10110.21 11862.93,10139.68" allow="pedestrian motorcycle moped bicycle">
        <lane index="0">
            <param key="origId" value="105466461"/>
        </lane>
    </edge>
    <edge id="-105466476" from="1214771162" to="1214770800" priority="1" type="highway.track" numLanes="1" speed="5.56" shape="11634.01,12237.78 11622.63,12237.45 11611.75,12231.90 11597.87,12200.77 11581.10,12184.84 11557.33,12159.05 11539.46,12143.64 11530.36,12126.15 11522.25,12117.37 11508.12,12116.26" allow="pedestrian motorcycle moped bicycle">
        <lane index="0">
            <param key="origId" value="105466476"/>
        </lane>
    </edge>
    <edge id="-153713996#0" from="6127497269" to="4753088620" priority="9" type="highway.motorway_link" numLanes="1" speed="22.22" shape="11166.90,14522.30 11169.27,14518.00 11172.98,14515.94 11178.96,14515.08 11244.04,14519.84 11279.26,14522.85 11290.43,14524.10 11294.80,14524.80" allow="private emergency authority army vip passenger hov taxi bus coach delivery truck trailer motorcycle evehicle custom1 custom2">
        <lane index="0">
            <param key="origId" value="153713996 153713982 92231527"/>
        </lane>
    </edge>
    <edge id="-153713996#1" from="1070733720" to="6127497269" priority="9" type="highway.motorway_link" numLanes="1" speed="22.22" shape="11231.64,14579.20 11214.65,14561.79 11202.70,14551.85 11191.70,14544.94 11171.71,14535.73 11168.16,14532.43 11166.40,14527.65 11166.90,14522.30" allow="private emergency authority army vip passenger hov taxi bus coach delivery truck trailer motorcycle evehicle custom1 custom2">
        <lane index="0">
            <param key="origId" value="153713996"/>
        </lane>
    </edge>
    <edge id="-203508064#1" from="3089980853" to="3089980858" name="Avenida Araguaia" priority="3" type="highway.residential" numLanes="1" speed="11.11" shape="9082.47,18149.33 9079.25,18165.70 9075.51,18181.19" disallow="tram rail_urban rail rail_electric rail_fast ship">
        <lane index="0">
            <param key="origId" value="203508064"/>
        </lane>
    </edge>
    <edge id="-203508066#1" from="2135222543" to="2135222558" name="Rua José Gregório de Medeiros" priority="3" type="highway.residential" numLanes="1" speed="13.89" disallow="tram rail_urban rail rail_electric rail_fast ship">
        <lane index="0">
            <param key="origId" value="203508066"/>
        </lane>
    </edge>
    <edge id="-226277583#0" from="3838360765" to="2351317781" priority="4" type="highway.unclassified" numLanes="1" speed="13.89" shape="14657.95,5543.39 14665.40,5546.42 14670.74,5555.72 14670.22,5562.59" disallow="tram rail_urban rail rail_electric rail_fast ship">
        <lane index="0">
            <param key="origId" value="226277583"/>
        </lane>
    </edge>
    <edge id="-226277583#1" from="26894385" to="3838360765" priority="4" type="highway.unclassified" numLanes="1" speed="13.89" shape="14580.61,5528.55 14585.61,5534.46 14589.93,5536.38 14599.51,5537.73 14629.81,5539.28 14653.95,5541.96 14657.95,5543.39" disallow="tram rail_urban rail rail_electric rail_fast ship">
        <lane index="0">
            <param key="origId" value="226277583"/>
        </lane>
    </edge>
    <edge id="-251689884#0" from="2578720404" to="cluster_2578719323_2578789456" priority="10" type="highway.tertiary" numLanes="1" speed="94.44" shape="8577.60,19351.45 8591.41,19320.12 8596.63,19307.57 8601.89,19294.39 8605.03,19282.60 8606.36,19273.23 8606.74,19262.70 8605.28,19252.96 8602.50,19245.12 8598.27,19236.98 8592.26,19230.61 8581.02,19223.82 8569.89,19219.26 8556.06,19215.46 8536.04,19214.84 8519.36,19216.84" disallow="tram rail_urban rail rail_electric rail_fast ship">
        <lane index="0">
            <param key="origId" value="251689884"/>
        </lane>
        <param key="origTo" value="2578719323"/>
    </edge>
    <edge id="-251689884#1" from="2578720406" to="2578720404" priority="10" type="highway.tertiary" numLanes="1" speed="94.44" shape="8571.43,19369.13 8574.67,19358.75 8577.60,19351.45" disallow="tram rail_urban rail rail_electric rail_fast ship">
        <lane index="0">
            <param key="origId" value="251689884"/>
        </lane>
    </edge>
    <edge id="-251690056#0" from="2578721121" to="2578720406" priority="10" type="highway.tertiary" numLanes="1" speed="16.67" disallow="tram rail_urban rail rail_electric rail_fast ship">
        <lane index="0">
            <param key="origId" value="251690056"/>
        </lane>
    </edge>
    <edge id="-251690240" from="2598988906" to="2578721121" priority="10" type="highway.tertiary" numLanes="1" speed="16.67" shape="8592.66,19630.52 8586.65,19604.69 8579.59,19536.92 8575.08,19486.98 8571.46,19441.68 8569.33,19398.30 8569.82,19378.46" disallow="tram rail_urban rail rail_electric rail_fast ship">
        <lane index="0">
            <param key="origId" value="251690240 251690056"/>
        </lane>
    </edge>
    <edge id="-252221663" from="2647878716" to="1266038559" priority="11" type="highway.secondary" numLanes="2" speed="8.33" shape="2402.81,20001.82 2404.84,20024.50 2405.35,20035.83 2409.23,20102.76 2408.51,20130.75 2404.39,20168.90 2397.33,20200.91 2389.81,20225.30 2383.68,20247.12" disallow="tram rail_urban rail rail_electric rail_fast ship">
        <lane index="0">
            <param key="origId" value="252221663"/>
        </lane>
        <lane index="1">
            <param key="origId" value="252221663"/>
        </lane>
    </edge>
    <edge id="-252221720" from="2583127054" to="2583127046" priority="9" type="highway.motorway_link" numLanes="1" speed="13.89" shape="5440.65,20658.33 5341.34,20644.86 5329.68,20641.07 5326.76,20639.12 5324.06,20636.32 5322.45,20633.78 5320.99,20629.28 5321.17,20625.20 5331.65,20561.69 5333.75,20557.02 5337.43,20552.38 5341.07,20549.62 5346.02,20547.72 5358.27,20547.17 5448.74,20542.66" allow="private emergency authority army vip passenger hov taxi bus coach delivery truck trailer motorcycle evehicle custom1 custom2">
        <lane index="0">
            <param key="origId" value="252221720"/>
        </lane>
    </edge>
    <edge id="-254012329#0" from="cluster_4790534009_7919553233" to="cluster_2598514993_7927391602" name="Rua José" priority="10" type="highway.tertiary" numLanes="1" speed="11.11" shape="9184.99,18161.43 9185.27,18142.67 9185.94,18134.38 9187.77,18123.85 9189.31,18116.53 9191.10,18109.81 9194.11,18102.53 9198.08,18095.12" disallow="tram rail_urban rail rail_electric rail_fast ship">
        <lane index="0">
            <param key="origId" value="254012329"/>
        </lane>
        <param key="origFrom" value="7919553233"/>
        <param key="origTo" value="2598514993"/>
    </edge>
    <edge id="-254068758" from="cluster_2578719323_2578789456" to="cluster_1422234086_2578719319" priority="9" type="highway.motorway_link" numLanes="1" speed="16.67" shape="8512.70,19235.01 8529.56,19264.32" disallow="moped bicycle tram rail_urban rail rail_electric rail_fast ship">
        <lane index="0">
            <param key="origId" value="254068758"/>
        </lane>
        <param key="origFrom" value="2578789456"/>
        <param key="origTo" value="2578719319"/>
    </edge>
    <edge id="-254446672" from="2578728634" to="2578735989" priority="1" type="highway.path" numLanes="1" speed="2.78" shape="8464.30,20520.53 8469.70,20548.22 8473.19,20554.78 8477.50,20560.81 8479.10,20564.36 8488.42,20600.08 8489.48,20611.44" width="2.00" allow="pedestrian bicycle">
        <lane index="0">
            <param key="origId" value="254446672 254446673"/>
        </lane>
    </edge>
    <edge id="-254446673" from="2578735989" to="2578728634" priority="1" type="highway.path" numLanes="1" speed="2.78" shape="8489.48,20611.44 8488.42,20600.08 8479.10,20564.36 8477.50,20560.81 8473.19,20554.78 8469.70,20548.22 8464.30,20520.53" width="2.00" allow="pedestrian bicycle">
        <lane index="0">
            <param key="origId" value="254446673 254446672"/>
        </lane>
    </edge>
    <edge id="-256775123" from="2624041081" to="cluster_1422438365_2578728638_2624041371" priority="4" type="highway.unclassified" numLanes="1" speed="13.89" shape="8449.41,20454.63 8454.06,20484.54 8456.80,20496.05 8458.37,20499.71 8459.57,20502.20 8465.34,20511.78" disallow="tram rail_urban rail rail_electric rail_fast ship">
        <lane index="0">
            <param key="origId" value="256775123 256775156"/>
        </lane>
        <param key="origTo" value="2624041371"/>
    </edge>
    <edge id="-256775248" from="2624043619" to="2624041081" name="Rua Manfredo Meyer" priority="4" type="highway.unclassified" numLanes="1" speed="13.89" shape="8458.69,20177.14 8460.82,20193.83 8462.34,20211.18 8463.86,20221.81 8464.86,20236.36 8465.38,20254.98 8466.34,20271.11 8467.14,20285.39 8467.18,20294.30 8466.65,20311.21 8465.87,20320.24 8463.73,20328.52 8460.24,20335.89 8449.91,20362.08 8445.63,20384.67 8445.20,20399.07 8449.41,20454.63" disallow="tram rail_urban rail rail_electric rail_fast ship">
        <lane index="0">
            <param key="origId" value="256775248 256775188 256775171"/>
        </lane>
    </edge>
    <edge id="-256775268" from="2624045093" to="2624043619" priority="4" type="highway.unclassified" numLanes="1" speed="13.89" shape="8405.79,20111.41 8409.72,20127.09 8415.11,20134.75 8428.15,20142.24 8447.49,20149.10 8451.15,20151.18 8454.81,20155.44 8458.69,20177.14" disallow="tram rail_urban rail rail_electric rail_fast ship">
        <lane index="0">
            <param key="origId" value="256775268"/>
        </lane>
    </edge>
    <edge id="-256777363#1" from="6601384172" to="cluster_2598514993_7927391602" name="Rua José" priority="10" type="highway.tertiary" numLanes="1" speed="22.22" shape="9242.37,18005.19 9238.82,18025.00 9235.89,18036.72 9230.91,18048.49 9223.59,18061.19 9201.06,18091.44" disallow="pedestrian tram rail_urban rail rail_electric rail_fast ship">
        <lane index="0">
            <param key="origId" value="256777363"/>
        </lane>
        <param key="origTo" value="7927391602"/>
    </edge>
    <edge id="-256777363#2" from="2624072817" to="6601384172" name="Rua José" priority="10" type="highway.tertiary" numLanes="1" speed="22.22" shape="9532.44,17519.56 9455.35,17592.50 9414.14,17633.68 9389.44,17661.47 9360.45,17701.33 9337.64,17739.72 9315.95,17779.28 9289.55,17831.39 9279.57,17857.10 9269.70,17885.20 9263.20,17911.76 9245.47,17989.80 9242.37,18005.19" disallow="pedestrian tram rail_urban rail rail_electric rail_fast ship">
        <lane index="0">
            <param key="origId" value="256777363"/>
        </lane>
    </edge>
    <edge id="-259554457#0" from="2649827374" to="2649827361" name="Alameda Yakult" priority="4" type="highway.unclassified" numLanes="1" speed="11.11" shape="9851.59,17001.60 9805.37,17029.47 9776.62,17053.76 9757.72,17082.50 9748.25,17112.72 9742.82,17146.09 9742.26,17173.94 9746.93,17222.24 9749.06,17278.66 9747.89,17311.54" disallow="tram rail_urban rail rail_electric rail_fast ship">
        <lane index="0">
            <param key="origId" value="259554457"/>
        </lane>
    </edge>
    <edge id="-259554457#1" from="cluster_2649827389_2649827392" to="2649827374" name="Alameda Yakult" priority="4" type="highway.unclassified" numLanes="1" speed="11.11" shape="9999.92,16889.67 9993.87,16906.99 9978.83,16932.32 9967.49,16945.65 9949.98,16958.79 9927.66,16969.15 9888.09,16983.58 9851.59,17001.60" disallow="tram rail_urban rail rail_electric rail_fast ship">
        <lane index="0">
            <param key="origId" value="259554457"/>
        </lane>
        <param key="origFrom" value="2649827389"/>
    </edge>
    <edge id="-259554471" from="2649827380" to="cluster_2649827389_2649827392" priority="2" type="highway.living_street" numLanes="1" speed="2.78" shape="10168.35,16872.26 10104.72,16924.34 10100.00,16926.81 10095.52,16927.20 10091.43,16925.56 10088.71,16923.00 10086.82,16918.84 10082.45,16898.68 10079.87,16892.35 10074.77,16886.40 10067.58,16882.36 10056.08,16878.27 10009.57,16865.03" disallow="tram rail_urban rail rail_electric rail_fast ship">
        <lane index="0">
            <param key="origId" value="259554471"/>
        </lane>
        <param key="origTo" value="2649827392"/>
    </edge>
    <edge id="-284348999#0" from="2880911305" to="cluster_4790534009_7919553233" priority="1" type="highway.service" numLanes="1" speed="5.56" shape="9164.38,18147.78 9170.44,18158.13 9172.29,18159.96 9174.04,18161.05 9176.36,18161.48 9184.99,18161.43" allow="pedestrian delivery bicycle">
        <lane index="0">
            <param key="origId" value="284348999 702937702"/>
        </lane>
        <param key="origTo" value="7919553233"/>
    </edge>
    <edge id="-284348999#1" from="7928202347" to="2880911305" priority="1" type="highway.service" numLanes="1" speed="5.56" shape="9171.16,18104.14 9169.98,18101.68 9168.28,18100.02 9166.24,18099.46 9163.74,18099.78 9145.86,18111.57 9144.77,18113.53 9144.41,18115.75 9144.95,18118.50 9164.38,18147.78" allow="pedestrian delivery bicycle">
        <lane index="0">
            <param key="origId" value="284348999"/>
        </lane>
    </edge>
    <edge id="-286524324" from="2578723686" to="2598988906" priority="10" type="highway.tertiary" numLanes="1" speed="22.22" disallow="tram rail_urban rail rail_electric rail_fast ship">
        <lane index="0">
            <param key="origId" value="286524324"/>
        </lane>
    </edge>
    <edge id="-286619623" from="2902993628" to="2902993604" priority="1" type="highway.service" numLanes="1" speed="5.56" shape="3628.64,13410.99 3623.38,13429.55 3613.10,13469.38 3604.69,13500.13 3602.75,13503.64 3599.01,13507.27 3595.45,13508.72 3588.50,13506.47 3584.17,13503.30 3582.43,13499.07 3583.06,13492.15" allow="pedestrian delivery bicycle">
        <lane index="0">
            <param key="origId" value="286619623"/>
        </lane>
    </edge>
    <edge id="-286619686#0" from="2902993628" to="2902993631" priority="1" type="highway.service" numLanes="1" speed="5.56" shape="3628.64,13410.99 3665.34,13406.57 3703.65,13400.14" allow="pedestrian delivery bicycle">
        <lane index="0">
            <param key="origId" value="286619686"/>
        </lane>
    </edge>
    <edge id="-286619686#1" from="2902993604" to="2902993628" priority="1" type="highway.service" numLanes="1" speed="5.56" shape="3583.06,13492.15 3585.19,13484.42 3597.73,13437.95 3601.96,13426.73 3606.13,13420.79 3616.57,13414.93 3628.64,13410.99" allow="pedestrian delivery bicycle">
        <lane index="0">
            <param key="origId" value="286619686"/>
        </lane>
    </edge>
    <edge id="-286619696#0" from="2902993566" to="2902993544" priority="1" type="highway.service" numLanes="1" speed="5.56" shape="3589.96,13620.63 3586.29,13618.95 3581.92,13618.64 3577.24,13621.99 3570.70,13631.94 3562.26,13641.38 3556.04,13647.57 3549.29,13653.06" allow="pedestrian delivery bicycle">
        <lane index="0">
            <param key="origId" value="286619696"/>
        </lane>
    </edge>
    <edge id="-286619696#1" from="2902993509" to="2902993566" priority="1" type="highway.service" numLanes="1" speed="5.56" shape="3625.95,13718.76 3619.54,13687.95 3613.48,13667.37 3604.99,13645.12 3599.38,13633.38 3594.29,13624.48 3589.96,13620.63" allow="pedestrian delivery bicycle">
        <lane index="0">
            <param key="origId" value="286619696"/>
        </lane>
    </edge>
    <edge id="-294274827" from="1266038447" to="2647878581" priority="11" type="highway.secondary" numLanes="1" speed="11.11" shape="2246.68,19665.11 2251.23,19673.32 2254.46,19678.11 2265.81,19689.79 2283.83,19704.40 2319.45,19734.30 2327.16,19741.32 2342.74,19754.55 2357.04,19770.75 2372.18,19793.22 2383.22,19813.60 2392.85,19839.67 2396.52,19853.71 2398.89,19866.91 2400.06,19882.72 2400.20,19908.31 2400.23,19914.30" disallow="tram rail_urban rail rail_electric rail_fast ship">
        <lane index="0">
            <param key="origId" value="294274827"/>
        </lane>
    </edge>
    <edge id="-294276444" from="2647878581" to="cluster_7976202300_7991970634" priority="11" type="highway.secondary" numLanes="1" speed="16.67" shape="2400.23,19914.30 2401.28,19968.50" disallow="tram rail_urban rail rail_electric rail_fast ship">
        <lane index="0">
            <param key="origId" value="294276444"/>
        </lane>
        <param key="origTo" value="7991970634"/>
    </edge>
    <edge id="-295758391" from="2995153281" to="2995153280" priority="1" type="highway.service" numLanes="1" speed="5.56" allow="pedestrian delivery bicycle">
        <lane index="0">
            <param key="origId" value="295758391"/>
        </lane>
    </edge>
    <edge id="-295758392" from="2995153309" to="2995153307" priority="1" type="highway.service" numLanes="1" speed="5.56" allow="pedestrian delivery bicycle">
        <lane index="0">
            <param key="origId" value="295758392"/>
        </lane>
    </edge>
    <edge id="-295758393#0" from="2995153265" to="2995153263" priority="1" type="highway.service" numLanes="1" speed="5.56" allow="pedestrian delivery bicycle">
        <lane index="0">
            <param key="origId" value="295758393"/>
        </lane>
    </edge>
    <edge id="-295758393#1" from="2995153276" to="2995153265" priority="1" type="highway.service" numLanes="1" speed="5.56" allow="pedestrian delivery bicycle">
        <lane index="0">
            <param key="origId" value="295758393"/>
        </lane>
    </edge>
    <edge id="-295758394" from="2995153265" to="2995153260" priority="1" type="highway.service" numLanes="1" speed="5.56" allow="pedestrian delivery bicycle">
        <lane index="0">
            <param key="origId" value="295758394"/>
        </lane>
    </edge>
    <edge id="-295758395#0" from="2995153280" to="2995153292" priority="1" type="highway.service" numLanes="1" speed="5.56" allow="pedestrian delivery bicycle">
        <lane index="0">
            <param key="origId" value="295758395"/>
        </lane>
    </edge>
    <edge id="-295758395#1" from="2995153279" to="2995153280" priority="1" type="highway.service" numLanes="1" speed="5.56" allow="pedestrian delivery bicycle">
        <lane index="0">
            <param key="origId" value="295758395"/>
        </lane>
    </edge>
    <edge id="-295758396#0" from="2995153307" to="2995153329" priority="1" type="highway.service" numLanes="1" speed="5.56" shape="2527.12,19617.81 2521.87,19600.69 2517.92,19587.64" allow="pedestrian delivery bicycle">
        <lane index="0">
            <param key="origId" value="295758396"/>
        </lane>
    </edge>
    <edge id="-295758396#1" from="2995153304" to="2995153307" priority="1" type="highway.service" numLanes="1" speed="5.56" allow="pedestrian delivery bicycle">
        <lane index="0">
            <param key="origId" value="295758396"/>
        </lane>
    </edge>
    <edge id="-295758399#0" from="2995153329" to="2995153324" priority="1" type="highway.service" numLanes="1" speed="5.56" shape="2517.92,19587.64 2475.83,19601.06 2459.92,19606.41 2447.86,19608.64 2436.64,19608.78 2424.61,19607.10 2396.17,19597.60" allow="pedestrian delivery bicycle">
        <lane index="0">
            <param key="origId" value="295758399"/>
        </lane>
    </edge>
    <edge id="-295758399#1" from="2583103220" to="2995153329" priority="1" type="highway.service" numLanes="1" speed="5.56" shape="2587.37,19529.19 2571.82,19550.76 2558.88,19562.58 2550.81,19570.37 2541.90,19576.61 2530.44,19582.79 2517.92,19587.64" allow="pedestrian delivery bicycle">
        <lane index="0">
            <param key="origId" value="295758399"/>
        </lane>
    </edge>
    <edge id="-296213289" from="3000027265" to="2902993566" priority="1" type="highway.track" numLanes="1" speed="5.56" shape="3395.78,14218.07 3404.95,14180.12 3417.15,14139.22 3419.50,14125.12 3430.25,14117.09 3446.46,14109.38 3458.57,14102.19 3468.57,14087.35 3470.93,14072.15 3467.04,14053.08 3459.29,14037.24 3459.52,14016.58 3468.21,13996.57 3485.45,13970.40 3498.06,13943.10 3503.36,13908.65 3511.75,13891.88 3527.35,13865.70 3538.38,13831.85 3545.80,13803.39 3551.53,13780.37 3552.60,13757.82 3552.62,13755.65 3552.28,13737.16 3558.27,13715.48 3567.00,13692.21 3578.26,13662.99 3586.42,13641.60 3589.96,13620.63" allow="pedestrian motorcycle moped bicycle">
        <lane index="0">
            <param key="origId" value="296213289"/>
        </lane>
    </edge>
    <edge id="-301833686" from="2135222546" to="cluster_2135222515_2135400144" name="Rua Sebastião Domingues da Silva" priority="3" type="highway.residential" numLanes="1" speed="11.11" shape="9365.95,17907.97 9395.48,17965.13 9401.59,17976.07 9408.59,17985.38 9442.15,18020.85" disallow="tram rail_urban rail rail_electric rail_fast ship">
        <lane index="0">
            <param key="origId" value="301833686"/>
        </lane>
        <param key="origTo" value="2135222515"/>
    </edge>
    <edge id="-303866745#0" from="7927258765" to="2135400131" priority="1" type="highway.service" numLanes="1" speed="5.56" allow="pedestrian delivery bicycle">
        <lane index="0">
            <param key="origId" value="303866745"/>
        </lane>
    </edge>
    <edge id="-303866745#1" from="2135400127" to="7927258765" priority="1" type="highway.service" numLanes="1" speed="5.56" shape="9317.81,18166.20 9322.49,18157.51 9330.03,18145.33" allow="pedestrian delivery bicycle">
        <lane index="0">
            <param key="origId" value="303866745"/>
        </lane>
    </edge>
    <edge id="-303866745#2" from="7927258767" to="2135400127" priority="1" type="highway.service" numLanes="1" speed="5.56" allow="pedestrian delivery bicycle">
        <lane index="0">
            <param key="origId" value="303866745"/>
        </lane>
    </edge>
    <edge id="-304466956#0" from="1805097628" to="3090070731" name="Rua Santa Martins" priority="3" type="highway.residential" numLanes="1" speed="13.89" disallow="tram rail_urban rail rail_electric rail_fast ship">
        <lane index="0">
            <param key="origId" value="304466956"/>
        </lane>
    </edge>
    <edge id="-306758960" from="cluster_7976202300_7991970634" to="2647878716" priority="11" type="highway.secondary" numLanes="2" speed="8.33" shape="2401.36,19972.92 2401.49,19975.24 2401.53,19981.22 2402.81,20001.82" disallow="tram rail_urban rail rail_electric rail_fast ship">
        <lane index="0">
            <param key="origId" value="306758960"/>
        </lane>
        <lane index="1">
            <param key="origId" value="306758960"/>
        </lane>
        <param key="origFrom" value="7976202300"/>
    </edge>
    <edge id="-321924698" from="3286912114" to="2135222503" name="Rua João D&amp;apos;Angelo" priority="1" type="highway.service" numLanes="1" speed="5.56" shape="9058.82,18102.98 9063.44,18099.65 9072.10,18094.31" allow="pedestrian delivery bicycle">
        <lane index="0">
            <param key="origId" value="321924698"/>
        </lane>
    </edge>
    <edge id="-329988780" from="2070941628" to="3369522172" priority="1" type="highway.service" numLanes="1" speed="5.56" shape="9136.48,18351.05 9131.97,18348.62 9127.05,18345.17 9121.13,18341.40" allow="pedestrian delivery bicycle">
        <lane index="0">
            <param key="origId" value="329988780 851443663"/>
        </lane>
    </edge>
    <edge id="-380513251#0" from="3838360749" to="3838360747" priority="3" type="highway.residential" numLanes="1" speed="13.89" disallow="tram rail_urban rail rail_electric rail_fast ship">
        <lane index="0">
            <param key="origId" value="380513251"/>
        </lane>
    </edge>
    <edge id="-380513251#1" from="3838360748" to="3838360749" priority="3" type="highway.residential" numLanes="1" speed="13.89" disallow="tram rail_urban rail rail_electric rail_fast ship">
        <lane index="0">
            <param key="origId" value="380513251"/>
        </lane>
    </edge>
    <edge id="-380513260" from="3838360772" to="3838360770" priority="3" type="highway.residential" numLanes="1" speed="13.89" shape="14474.02,5499.17 14470.69,5526.68 14471.95,5543.00" disallow="tram rail_urban rail rail_electric rail_fast ship">
        <lane index="0">
            <param key="origId" value="380513260"/>
        </lane>
    </edge>
    <edge id="-385513739#0" from="7812223344" to="3888619225" name="Rota Cicloturística Márcia Prado" priority="1" type="highway.service" numLanes="1" speed="8.33" shape="8174.95,2355.08 8169.33,2356.78 8101.32,2345.73 8054.53,2341.42 8027.36,2341.52 8002.46,2342.43 7984.45,2345.41 7966.33,2350.73 7937.21,2368.91 7911.30,2388.16 7895.26,2397.24 7880.01,2403.56 7845.61,2414.59" allow="pedestrian delivery bicycle">
        <lane index="0">
            <param key="origId" value="385513739"/>
        </lane>
    </edge>