<?xml version="1.0" encoding="UTF-8"?>

<!-- generated on 2021-11-05 04:39:28 by Eclipse SUMO netedit Version 1.10.0
<configuration xmlns:xsi="http://www.w3.org/2001/XMLSchema-instance" xsi:noNamespaceSchemaLocation="http://sumo.dlr.de/xsd/netconvertConfiguration.xsd">

    <input>
        <sumo-net-file value="/home/pedro/Documents/USP/Mestrado/MAC5910/Article/2021-10-13-22-59-10/osm.net.xml"/>
    </input>

    <output>
        <output-file value="/home/pedro/Documents/USP/Mestrado/MAC5910/Article/2021-10-13-22-59-10/osm.net.xml"/>
        <output.street-names value="true"/>
    </output>

    <processing>
        <geometry.min-radius.fix.railways value="false"/>
        <geometry.max-grade.fix value="false"/>
        <offset.disable-normalization value="true"/>
        <lefthand value="false"/>
    </processing>

    <junctions>
        <no-turnarounds value="true"/>
        <junctions.corner-detail value="5"/>
        <junctions.limit-turn-speed value="5.5"/>
        <rectangular-lane-cut value="false"/>
    </junctions>

    <pedestrian>
        <walkingareas value="false"/>
    </pedestrian>

    <report>
        <aggregate-warnings value="5"/>
    </report>

</configuration>
-->

<net version="1.9" junctionCornerDetail="5" limitTurnSpeed="5.50" xmlns:xsi="http://www.w3.org/2001/XMLSchema-instance" xsi:noNamespaceSchemaLocation="http://sumo.dlr.de/xsd/net_file.xsd">

    <location netOffset="-335098.67,2648758.09" convBoundary="1345.15,1568.58,16778.86,22189.73" origBoundary="-46.618665,-23.960229,-46.409384,-23.726632" projParameter="+proj=utm +zone=23 +ellps=WGS84 +datum=WGS84 +units=m +no_defs"/>

    <type id="highway.bridleway" priority="1" numLanes="1" speed="2.78" allow="pedestrian" oneway="1" width="2.00"/>
    <type id="highway.bus_guideway" priority="1" numLanes="1" speed="27.78" allow="bus" oneway="1"/>
    <type id="highway.cycleway" priority="1" numLanes="1" speed="8.33" allow="bicycle" oneway="1" width="1.00"/>
    <type id="highway.footway" priority="1" numLanes="1" speed="2.78" allow="pedestrian" oneway="1" width="2.00"/>
    <type id="highway.ford" priority="1" numLanes="1" speed="2.78" allow="army" oneway="1"/>
    <type id="highway.living_street" priority="2" numLanes="1" speed="2.78" disallow="tram rail_urban rail rail_electric rail_fast ship" oneway="1"/>
    <type id="highway.motorway" priority="14" numLanes="2" speed="39.44" allow="private emergency authority army vip passenger hov taxi bus coach delivery truck trailer motorcycle evehicle custom1 custom2" oneway="1"/>
    <type id="highway.motorway_link" priority="9" numLanes="1" speed="22.22" allow="private emergency authority army vip passenger hov taxi bus coach delivery truck trailer motorcycle evehicle custom1 custom2" oneway="1"/>
    <type id="highway.path" priority="1" numLanes="1" speed="2.78" allow="pedestrian bicycle" oneway="1" width="2.00"/>
    <type id="highway.pedestrian" priority="1" numLanes="1" speed="2.78" allow="pedestrian" oneway="1" width="2.00"/>
    <type id="highway.primary" priority="12" numLanes="2" speed="27.78" disallow="tram rail_urban rail rail_electric rail_fast ship" oneway="1"/>
    <type id="highway.primary_link" priority="7" numLanes="1" speed="22.22" disallow="tram rail_urban rail rail_electric rail_fast ship" oneway="1"/>
    <type id="highway.raceway" priority="15" numLanes="2" speed="83.33" allow="vip" oneway="1"/>
    <type id="highway.residential" priority="3" numLanes="1" speed="13.89" disallow="tram rail_urban rail rail_electric rail_fast ship" oneway="1"/>
    <type id="highway.secondary" priority="11" numLanes="1" speed="27.78" disallow="tram rail_urban rail rail_electric rail_fast ship" oneway="1"/>
    <type id="highway.secondary_link" priority="6" numLanes="1" speed="22.22" disallow="tram rail_urban rail rail_electric rail_fast ship" oneway="1"/>
    <type id="highway.service" priority="1" numLanes="1" speed="5.56" allow="pedestrian delivery bicycle" oneway="1"/>
    <type id="highway.stairs" priority="1" numLanes="1" speed="1.39" allow="pedestrian" oneway="1" width="2.00"/>
    <type id="highway.step" priority="1" numLanes="1" speed="1.39" allow="pedestrian" oneway="1" width="2.00"/>
    <type id="highway.steps" priority="1" numLanes="1" speed="1.39" allow="pedestrian" oneway="1" width="2.00"/>
    <type id="highway.tertiary" priority="10" numLanes="1" speed="22.22" disallow="tram rail_urban rail rail_electric rail_fast ship" oneway="1"/>
    <type id="highway.tertiary_link" priority="5" numLanes="1" speed="22.22" disallow="tram rail_urban rail rail_electric rail_fast ship" oneway="1"/>
    <type id="highway.track" priority="1" numLanes="1" speed="5.56" allow="pedestrian motorcycle moped bicycle" oneway="1"/>
    <type id="highway.trunk" priority="13" numLanes="2" speed="27.78" disallow="pedestrian bicycle tram rail_urban rail rail_electric rail_fast ship" oneway="1"/>
    <type id="highway.trunk_link" priority="8" numLanes="1" speed="22.22" disallow="pedestrian bicycle tram rail_urban rail rail_electric rail_fast ship" oneway="1"/>
    <type id="highway.unclassified" priority="4" numLanes="1" speed="13.89" disallow="tram rail_urban rail rail_electric rail_fast ship" oneway="1"/>
    <type id="highway.unsurfaced" priority="1" numLanes="1" speed="8.33" disallow="tram rail_urban rail rail_electric rail_fast ship" oneway="1"/>
    <type id="railway.highspeed" priority="21" numLanes="1" speed="69.44" allow="rail_fast" oneway="1"/>
    <type id="railway.light_rail" priority="19" numLanes="1" speed="27.78" allow="rail_urban" oneway="1"/>
    <type id="railway.preserved" priority="16" numLanes="1" speed="27.78" allow="rail" oneway="1"/>
    <type id="railway.rail" priority="20" numLanes="1" speed="44.44" allow="rail" oneway="1"/>
    <type id="railway.subway" priority="18" numLanes="1" speed="27.78" allow="rail_urban" oneway="1"/>
    <type id="railway.tram" priority="17" numLanes="1" speed="13.89" allow="tram" oneway="1"/>

    <edge id=":1028696664_0" function="internal">
        <lane id=":1028696664_0_0" index="0" allow="private emergency authority army vip passenger hov taxi bus coach delivery truck trailer motorcycle evehicle custom1 custom2" speed="25.00" length="2.85" shape="7872.33,19854.53 7869.56,19855.02"/>
        <lane id=":1028696664_0_1" index="1" allow="private emergency authority army vip passenger hov taxi bus coach delivery truck trailer motorcycle evehicle custom1 custom2" speed="25.00" length="2.85" shape="7871.81,19851.37 7868.96,19851.87"/>
    </edge>
    <edge id=":1028696664_2" function="internal">
        <lane id=":1028696664_2_0" index="0" allow="private emergency authority army vip passenger hov taxi bus coach delivery truck trailer motorcycle evehicle custom1 custom2" speed="27.78" length="3.05" shape="7871.30,19848.21 7868.37,19848.71"/>
        <lane id=":1028696664_2_1" index="1" allow="private emergency authority army vip passenger hov taxi bus coach delivery truck trailer motorcycle evehicle custom1 custom2" speed="27.78" length="3.05" shape="7870.78,19845.05 7867.77,19845.57"/>
        <lane id=":1028696664_2_2" index="2" allow="private emergency authority army vip passenger hov taxi bus coach delivery truck trailer motorcycle evehicle custom1 custom2" speed="27.78" length="3.05" shape="7870.27,19841.89 7867.18,19842.42"/>
    </edge>
    <edge id=":1028696683_0" function="internal">
        <lane id=":1028696683_0_0" index="0" allow="delivery" speed="8.33" length="11.60" shape="7614.75,20502.82 7617.71,20504.66 7620.09,20505.50 7622.49,20505.98 7625.54,20506.74"/>
    </edge>
    <edge id=":1028696683_1" function="internal">
        <lane id=":1028696683_1_0" index="0" allow="private emergency authority army vip passenger hov taxi bus coach delivery truck trailer motorcycle evehicle custom1 custom2" speed="11.11" length="11.88" shape="7614.75,20502.82 7624.20,20510.12"/>
        <lane id=":1028696683_1_1" index="1" allow="private emergency authority army vip passenger hov taxi bus coach delivery truck trailer motorcycle evehicle custom1 custom2" speed="11.11" length="11.88" shape="7612.85,20505.40 7622.29,20512.69"/>
        <lane id=":1028696683_1_2" index="2" allow="private emergency authority army vip passenger hov taxi bus coach delivery truck trailer motorcycle evehicle custom1 custom2" speed="11.11" length="11.88" shape="7610.96,20507.97 7620.38,20515.26"/>
        <lane id=":1028696683_1_3" index="3" allow="private emergency authority army vip passenger hov taxi bus coach delivery truck trailer motorcycle evehicle custom1 custom2" speed="11.11" length="11.88" shape="7609.06,20510.55 7618.48,20517.83"/>
        <lane id=":1028696683_1_4" index="4" allow="private emergency authority army vip passenger hov taxi bus coach delivery truck trailer motorcycle evehicle custom1 custom2" speed="11.11" length="11.88" shape="7607.16,20513.13 7616.57,20520.40"/>
        <lane id=":1028696683_1_5" index="5" allow="private emergency authority army vip passenger hov taxi bus coach delivery truck trailer motorcycle evehicle custom1 custom2" speed="11.11" length="11.88" shape="7605.27,20515.71 7614.66,20522.98"/>
        <lane id=":1028696683_1_6" index="6" allow="private emergency authority army vip passenger hov taxi bus coach delivery truck trailer motorcycle evehicle custom1 custom2" speed="11.11" length="11.88" shape="7603.37,20518.29 7612.76,20525.55"/>
        <lane id=":1028696683_1_7" index="7" allow="private emergency authority army vip passenger hov taxi bus coach delivery truck trailer motorcycle evehicle custom1 custom2" speed="11.11" length="11.88" shape="7601.48,20520.86 7610.85,20528.12"/>
        <lane id=":1028696683_1_8" index="8" allow="private emergency authority army vip passenger hov taxi bus coach delivery truck trailer motorcycle evehicle custom1 custom2" speed="11.11" length="11.88" shape="7599.58,20523.44 7608.95,20530.69"/>
        <lane id=":1028696683_1_9" index="9" allow="private emergency authority army vip passenger hov taxi bus coach delivery truck trailer motorcycle evehicle custom1 custom2" speed="11.11" length="11.88" shape="7597.68,20526.02 7607.04,20533.26"/>
    </edge>
    <edge id=":1028696779_0" function="internal">
        <lane id=":1028696779_0_0" index="0" allow="private emergency authority army vip passenger hov taxi bus coach delivery truck trailer motorcycle evehicle custom1 custom2" speed="11.11" length="8.59" shape="7659.70,20537.37 7662.10,20538.59 7664.11,20538.77 7666.09,20538.97 7668.42,20540.28"/>
        <lane id=":1028696779_0_1" index="1" allow="private emergency authority army vip passenger hov taxi bus coach delivery truck trailer motorcycle evehicle custom1 custom2" speed="11.11" length="8.59" shape="7657.75,20539.91 7660.12,20541.11 7662.10,20541.26 7664.06,20541.45 7666.36,20542.73"/>
        <lane id=":1028696779_0_2" index="2" allow="private emergency authority army vip passenger hov taxi bus coach delivery truck trailer motorcycle evehicle custom1 custom2" speed="11.11" length="8.59" shape="7655.80,20542.45 7658.14,20543.62 7660.10,20543.75 7662.03,20543.92 7664.30,20545.18"/>
        <lane id=":1028696779_0_3" index="3" allow="private emergency authority army vip passenger hov taxi bus coach delivery truck trailer motorcycle evehicle custom1 custom2" speed="11.11" length="8.59" shape="7653.85,20544.99 7656.16,20546.13 7658.09,20546.25 7660.00,20546.40 7662.23,20547.63"/>
        <lane id=":1028696779_0_4" index="4" allow="private emergency authority army vip passenger hov taxi bus coach delivery truck trailer motorcycle evehicle custom1 custom2" speed="11.11" length="8.59" shape="7651.90,20547.53 7654.18,20548.64 7656.08,20548.74 7657.97,20548.87 7660.17,20550.07"/>
        <lane id=":1028696779_0_5" index="5" allow="private emergency authority army vip passenger hov taxi bus coach delivery truck trailer motorcycle evehicle custom1 custom2" speed="11.11" length="8.59" shape="7649.95,20550.06 7652.20,20551.16 7654.08,20551.24 7655.94,20551.34 7658.11,20552.52"/>
        <lane id=":1028696779_0_6" index="6" allow="private emergency authority army vip passenger hov taxi bus coach delivery truck trailer motorcycle evehicle custom1 custom2" speed="11.11" length="8.59" shape="7648.01,20552.60 7650.21,20553.67 7652.07,20553.73 7653.91,20553.82 7656.05,20554.97"/>
        <lane id=":1028696779_0_7" index="7" allow="private emergency authority army vip passenger hov taxi bus coach delivery truck trailer motorcycle evehicle custom1 custom2" speed="11.11" length="8.59" shape="7646.06,20555.14 7648.23,20556.18 7650.07,20556.22 7651.88,20556.29 7653.99,20557.41"/>
        <lane id=":1028696779_0_8" index="8" allow="private emergency authority army vip passenger hov taxi bus coach delivery truck trailer motorcycle evehicle custom1 custom2" speed="11.11" length="8.59" shape="7644.11,20557.68 7646.25,20558.70 7648.06,20558.72 7649.85,20558.77 7651.93,20559.86"/>
        <lane id=":1028696779_0_9" index="9" allow="private emergency authority army vip passenger hov taxi bus coach delivery truck trailer motorcycle evehicle custom1 custom2" speed="11.11" length="8.59" shape="7642.16,20560.22 7644.27,20561.21 7646.05,20561.21 7647.82,20561.24 7649.86,20562.31"/>
        <lane id=":1028696779_0_10" index="10" allow="private emergency authority army vip passenger hov taxi bus coach delivery truck trailer motorcycle evehicle custom1 custom2" speed="11.11" length="8.59" shape="7642.16,20560.22 7647.80,20564.76"/>
        <lane id=":1028696779_0_11" index="11" allow="private emergency authority army vip passenger hov taxi bus coach delivery truck trailer motorcycle evehicle custom1 custom2" speed="11.11" length="8.59" shape="7642.16,20560.22 7643.61,20561.96 7643.99,20563.66 7644.35,20565.38 7645.74,20567.20"/>
    </edge>
    <edge id=":1028696831_0" function="internal">
        <lane id=":1028696831_0_0" index="0" allow="private emergency authority army vip passenger hov taxi bus coach delivery truck trailer motorcycle evehicle custom1 custom2" speed="16.66" length="10.35" shape="7531.10,20448.44 7538.97,20447.07"/>
        <lane id=":1028696831_0_1" index="1" allow="private emergency authority army vip passenger hov taxi bus coach delivery truck trailer motorcycle evehicle custom1 custom2" speed="16.66" length="10.35" shape="7528.12,20449.83 7530.18,20450.91 7532.28,20450.06 7534.54,20449.05 7537.07,20449.65"/>
        <lane id=":1028696831_0_2" index="2" allow="private emergency authority army vip passenger hov taxi bus coach delivery truck trailer motorcycle evehicle custom1 custom2" speed="16.66" length="10.35" shape="7528.12,20449.83 7529.77,20451.12 7531.39,20451.29 7533.13,20451.33 7535.17,20452.22"/>
        <lane id=":1028696831_0_3" index="3" allow="private emergency authority army vip passenger hov taxi bus coach delivery truck trailer motorcycle evehicle custom1 custom2" speed="16.66" length="10.35" shape="7528.12,20449.83 7529.46,20451.49 7530.45,20452.57 7531.57,20453.52 7533.28,20454.80"/>
        <lane id=":1028696831_0_4" index="4" allow="private emergency authority army vip passenger hov taxi bus coach delivery truck trailer motorcycle evehicle custom1 custom2" speed="16.66" length="10.35" shape="7528.12,20449.83 7529.24,20452.03 7529.46,20453.90 7529.83,20455.63 7531.38,20457.38"/>
        <lane id=":1028696831_0_5" index="5" allow="private emergency authority army vip passenger hov taxi bus coach delivery truck trailer motorcycle evehicle custom1 custom2" speed="16.66" length="10.35" shape="7528.12,20449.83 7529.09,20452.68 7528.45,20455.26 7527.98,20457.66 7529.49,20459.96"/>
        <lane id=":1028696831_0_6" index="6" allow="private emergency authority army vip passenger hov taxi bus coach delivery truck trailer motorcycle evehicle custom1 custom2" speed="16.66" length="10.35" shape="7528.12,20449.83 7528.98,20453.39 7527.41,20456.64 7526.07,20459.66 7527.59,20462.54"/>
        <lane id=":1028696831_0_7" index="7" allow="private emergency authority army vip passenger hov taxi bus coach delivery truck trailer motorcycle evehicle custom1 custom2" speed="16.66" length="10.35" shape="7528.12,20449.83 7528.89,20454.13 7526.37,20458.03 7524.12,20461.64 7525.69,20465.11"/>
    </edge>
    <edge id=":1028696831_8" function="internal">
        <lane id=":1028696831_8_0" index="0" allow="private emergency authority army vip passenger hov taxi bus coach delivery truck trailer motorcycle evehicle custom1 custom2" speed="16.66" length="11.90" shape="7525.08,20452.43 7526.70,20454.41 7527.23,20456.26 7527.79,20458.08 7529.49,20459.96"/>
        <lane id=":1028696831_8_1" index="1" allow="private emergency authority army vip passenger hov taxi bus coach delivery truck trailer motorcycle evehicle custom1 custom2" speed="16.66" length="11.90" shape="7523.21,20455.04 7524.82,20457.01 7525.35,20458.85 7525.90,20460.67 7527.59,20462.54"/>
        <lane id=":1028696831_8_2" index="2" allow="private emergency authority army vip passenger hov taxi bus coach delivery truck trailer motorcycle evehicle custom1 custom2" speed="16.66" length="11.90" shape="7523.21,20455.04 7524.71,20457.57 7524.39,20460.16 7524.11,20462.70 7525.69,20465.11"/>
        <lane id=":1028696831_8_3" index="3" allow="private emergency authority army vip passenger hov taxi bus coach delivery truck trailer motorcycle evehicle custom1 custom2" speed="16.66" length="11.90" shape="7523.21,20455.04 7524.65,20458.18 7523.43,20461.46 7522.24,20464.69 7523.80,20467.69"/>
        <lane id=":1028696831_8_4" index="4" allow="private emergency authority army vip passenger hov taxi bus coach delivery truck trailer motorcycle evehicle custom1 custom2" speed="16.66" length="11.90" shape="7523.21,20455.04 7524.64,20458.82 7522.47,20462.77 7520.34,20466.66 7521.90,20470.27"/>
    </edge>
    <edge id=":1070732857_0" function="internal">
        <lane id=":1070732857_0_0" index="0" allow="pedestrian bicycle" speed="5.56" length="4.45" shape="11371.04,14459.06 11371.84,14459.87 11372.40,14460.80 11372.72,14461.83 11372.79,14462.98"/>
    </edge>
    <edge id=":1070732857_1" function="internal">
        <lane id=":1070732857_1_0" index="0" allow="pedestrian motorcycle moped bicycle" speed="3.65" length="4.67" shape="11371.04,14459.06 11371.46,14460.44 11371.26,14461.31 11370.44,14461.68 11369.01,14461.53"/>
    </edge>
    <edge id=":1070732857_2" function="internal">
        <lane id=":1070732857_2_0" index="0" allow="pedestrian bicycle" speed="4.08" length="1.48" shape="11369.59,14462.84 11369.57,14462.46 11369.46,14462.11 11369.28,14461.81 11369.01,14461.53"/>
    </edge>
    <edge id=":1070732857_3" function="internal">
        <lane id=":1070732857_3_0" index="0" allow="pedestrian delivery bicycle" speed="3.65" length="4.67" shape="11369.59,14462.84 11370.44,14461.67 11371.26,14461.31 11372.04,14461.74 11372.79,14462.98"/>
    </edge>
    <edge id=":1070733096_0" function="internal">
        <lane id=":1070733096_0_0" index="0" allow="private emergency authority army vip passenger hov taxi bus coach delivery truck trailer motorcycle evehicle custom1 custom2" speed="22.23" length="5.72" shape="11359.58,13500.07 11359.21,13498.62 11358.18,13497.81 11357.14,13497.00 11356.77,13495.54"/>
        <lane id=":1070733096_0_1" index="1" allow="private emergency authority army vip passenger hov taxi bus coach delivery truck trailer motorcycle evehicle custom1 custom2" speed="22.23" length="5.72" shape="11362.77,13500.35 11362.40,13498.83 11361.37,13497.96 11360.35,13497.09 11359.98,13495.57"/>
    </edge>
    <edge id=":1070733130_0" function="internal">
        <lane id=":1070733130_0_0" index="0" allow="private emergency authority army vip passenger hov taxi bus coach delivery truck trailer motorcycle evehicle custom1 custom2" speed="30.56" length="0.10" shape="11379.92,13436.84 11379.92,13436.84"/>
        <lane id=":1070733130_0_1" index="1" allow="private emergency authority army vip passenger hov taxi bus coach delivery truck trailer motorcycle evehicle custom1 custom2" speed="30.56" length="0.10" shape="11376.74,13436.50 11376.74,13436.50"/>
    </edge>
    <edge id=":1070733276_0" function="internal">
        <lane id=":1070733276_0_0" index="0" allow="private emergency authority army vip passenger hov taxi bus coach delivery truck trailer motorcycle evehicle custom1 custom2" speed="26.39" length="2.66" shape="11242.33,14659.96 11242.56,14657.31"/>
    </edge>
    <edge id=":1070733276_1" function="internal">
        <lane id=":1070733276_1_0" index="0" allow="private emergency authority army vip passenger hov taxi bus coach delivery truck trailer motorcycle evehicle custom1 custom2" speed="30.56" length="2.97" shape="11245.51,14660.34 11245.82,14657.49"/>
        <lane id=":1070733276_1_1" index="1" allow="private emergency authority army vip passenger hov taxi bus coach delivery truck trailer motorcycle evehicle custom1 custom2" speed="30.56" length="2.97" shape="11248.69,14660.72 11249.02,14657.67"/>
    </edge>
    <edge id=":1070733603_0" function="internal">
        <lane id=":1070733603_0_0" index="0" allow="private emergency authority army vip passenger hov taxi bus coach delivery truck trailer motorcycle evehicle custom1 custom2" speed="26.39" length="2.98" shape="11253.38,14547.16 11253.66,14544.20"/>
    </edge>
    <edge id=":1070733603_1" function="internal">
        <lane id=":1070733603_1_0" index="0" allow="private emergency authority army vip passenger hov taxi bus coach delivery truck trailer motorcycle evehicle custom1 custom2" speed="30.56" length="3.01" shape="11256.56,14547.47 11256.85,14544.48"/>
        <lane id=":1070733603_1_1" index="1" allow="private emergency authority army vip passenger hov taxi bus coach delivery truck trailer motorcycle evehicle custom1 custom2" speed="30.56" length="3.01" shape="11259.75,14547.78 11260.03,14544.77"/>
    </edge>
    <edge id=":1070733626_0" function="internal">
        <lane id=":1070733626_0_0" index="0" allow="private emergency authority army vip passenger hov taxi bus coach delivery truck trailer motorcycle evehicle custom1 custom2" speed="26.39" length="3.00" shape="11259.97,14660.20 11259.64,14663.18"/>
    </edge>
    <edge id=":1070733626_1" function="internal">
        <lane id=":1070733626_1_0" index="0" allow="private emergency authority army vip passenger hov taxi bus coach delivery truck trailer motorcycle evehicle custom1 custom2" speed="30.56" length="3.00" shape="11256.78,14659.86 11256.46,14662.84"/>
        <lane id=":1070733626_1_1" index="1" allow="private emergency authority army vip passenger hov taxi bus coach delivery truck trailer motorcycle evehicle custom1 custom2" speed="30.56" length="3.00" shape="11253.60,14659.52 11253.28,14662.50"/>
    </edge>
    <edge id=":1070733720_0" function="internal">
        <lane id=":1070733720_0_0" index="0" allow="private emergency authority army vip passenger hov taxi bus coach delivery truck trailer motorcycle evehicle custom1 custom2" speed="22.22" length="0.15" shape="11230.62,14580.46 11230.52,14580.34"/>
    </edge>
    <edge id=":1070733720_1" function="internal">
        <lane id=":1070733720_1_0" index="0" allow="private emergency authority army vip passenger hov taxi bus coach delivery truck trailer motorcycle evehicle custom1 custom2" speed="22.22" length="0.46" shape="11232.81,14578.11 11232.90,14578.21 11232.95,14578.29 11232.99,14578.37 11233.07,14578.48"/>
    </edge>
    <edge id=":1070733783_0" function="internal">
        <lane id=":1070733783_0_0" index="0" allow="private emergency authority army vip passenger hov taxi bus coach delivery truck trailer motorcycle evehicle custom1 custom2" speed="30.56" length="0.30" shape="11375.13,13480.62 11375.10,13480.91"/>
        <lane id=":1070733783_0_1" index="1" allow="private emergency authority army vip passenger hov taxi bus coach delivery truck trailer motorcycle evehicle custom1 custom2" speed="30.56" length="0.30" shape="11371.95,13480.27 11371.91,13480.57"/>
    </edge>
    <edge id=":1070733905_0" function="internal">
        <lane id=":1070733905_0_0" index="0" allow="pedestrian delivery bicycle" speed="3.65" length="4.67" shape="11156.50,13375.79 11157.93,13375.61 11158.75,13375.96 11158.97,13376.82 11158.58,13378.21"/>
    </edge>
    <edge id=":1070734036_0" function="internal">
        <lane id=":1070734036_0_0" index="0" allow="pedestrian delivery bicycle" speed="3.65" length="4.67" shape="11099.99,13472.25 11098.75,13472.99 11097.86,13473.00 11097.31,13472.30 11097.11,13470.87"/>
    </edge>
    <edge id=":111051591#1-AddedOnRampNode_0" function="internal">
        <lane id=":111051591#1-AddedOnRampNode_0_0" index="0" allow="private emergency authority army vip passenger hov taxi bus coach delivery truck trailer motorcycle evehicle custom1 custom2" speed="27.78" length="8.00" shape="8041.59,19787.54 8049.51,19786.46"/>
        <lane id=":111051591#1-AddedOnRampNode_0_1" index="1" allow="private emergency authority army vip passenger hov taxi bus coach delivery truck trailer motorcycle evehicle custom1 custom2" speed="27.78" length="8.00" shape="8042.03,19790.71 8049.96,19789.63"/>
        <lane id=":111051591#1-AddedOnRampNode_0_2" index="2" allow="private emergency authority army vip passenger hov taxi bus coach delivery truck trailer motorcycle evehicle custom1 custom2" speed="27.78" length="8.00" shape="8042.48,19793.88 8050.41,19792.79"/>
        <lane id=":111051591#1-AddedOnRampNode_0_3" index="3" allow="private emergency authority army vip passenger hov taxi bus coach delivery truck trailer motorcycle evehicle custom1 custom2" speed="27.78" length="8.00" shape="8042.92,19797.05 8050.86,19795.96"/>
    </edge>
    <edge id=":111056350-AddedOnRampNode_0" function="internal">
        <lane id=":111056350-AddedOnRampNode_0_0" index="0" allow="private emergency authority army vip passenger hov taxi bus coach delivery truck trailer motorcycle evehicle custom1 custom2" speed="22.22" length="8.00" shape="2579.36,19070.39 2576.30,19062.99"/>
        <lane id=":111056350-AddedOnRampNode_0_1" index="1" allow="private emergency authority army vip passenger hov taxi bus coach delivery truck trailer motorcycle evehicle custom1 custom2" speed="22.22" length="8.00" shape="2582.32,19069.16 2579.26,19061.77"/>
    </edge>
    <edge id=":1214770800_0" function="internal">
        <lane id=":1214770800_0_0" index="0" allow="motorcycle" speed="6.61" length="9.17" shape="11515.26,12118.43 11512.72,12118.57 11510.83,12119.47 11509.58,12121.11 11508.97,12123.51"/>
    </edge>
    <edge id=":1214770800_1" function="internal">
        <lane id=":1214770800_1_0" index="0" allow="pedestrian motorcycle moped bicycle" speed="3.65" length="4.67" shape="11515.26,12118.43 11514.12,12117.53 11513.79,12116.71 11514.25,12115.94 11515.51,12115.24"/>
    </edge>
    <edge id=":1214770800_2" function="internal">
        <lane id=":1214770800_2_0" index="0" allow="motorcycle" speed="6.45" length="9.03" shape="11510.47,12109.18 11510.57,12111.66 11511.44,12113.50 11513.08,12114.69 11515.51,12115.24"/>
    </edge>
    <edge id=":1214770800_3" function="internal">
        <lane id=":1214770800_3_0" index="0" allow="private emergency authority army vip passenger hov taxi bus coach delivery truck trailer motorcycle evehicle custom1 custom2" speed="30.56" length="14.40" shape="11510.47,12109.18 11508.97,12123.51"/>
        <lane id=":1214770800_3_1" index="1" allow="private emergency authority army vip passenger hov taxi bus coach delivery truck trailer motorcycle evehicle custom1 custom2" speed="30.56" length="14.40" shape="11507.29,12108.85 11505.79,12123.17"/>
    </edge>
    <edge id=":1214770941_0" function="internal">
        <lane id=":1214770941_0_0" index="0" allow="pedestrian motorcycle moped bicycle" speed="5.56" length="10.40" shape="11864.55,10146.18 11863.06,10144.25 11861.05,10143.10 11858.52,10142.75 11855.46,10143.17"/>
    </edge>
    <edge id=":1214770941_1" function="internal">
        <lane id=":1214770941_1_0" index="0" allow="pedestrian motorcycle moped bicycle" speed="5.56" length="14.59" shape="11864.55,10146.18 11857.74,10133.27"/>
    </edge>
    <edge id=":1214770941_2" function="internal">
        <lane id=":1214770941_2_0" index="0" allow="pedestrian motorcycle moped bicycle" speed="3.65" length="4.67" shape="11864.55,10146.18 11864.70,10144.74 11865.22,10144.02 11866.11,10144.00 11867.38,10144.69"/>
    </edge>
    <edge id=":1214770941_3" function="internal">
        <lane id=":1214770941_3_0" index="0" allow="pedestrian motorcycle moped bicycle" speed="5.56" length="14.60" shape="11860.57,10131.78 11867.38,10144.69"/>
    </edge>
    <edge id=":1214770941_4" function="internal">
        <lane id=":1214770941_4_0" index="0" allow="pedestrian motorcycle moped bicycle" speed="5.56" length="15.21" shape="11860.57,10131.78 11862.02,10135.85 11861.66,10139.11 11859.47,10141.55 11855.46,10143.17"/>
    </edge>
    <edge id=":1214770941_5" function="internal">
        <lane id=":1214770941_5_0" index="0" allow="pedestrian motorcycle moped bicycle" speed="3.65" length="4.67" shape="11860.57,10131.78 11860.42,10133.21 11859.90,10133.94 11859.01,10133.96 11857.74,10133.27"/>
    </edge>
    <edge id=":1214770941_6" function="internal">
        <lane id=":1214770941_6_0" index="0" allow="pedestrian motorcycle moped bicycle" speed="5.56" length="9.07" shape="11854.69,10140.06 11857.08,10139.10 11858.39,10137.64 11858.61,10135.70 11857.74,10133.27"/>
    </edge>
    <edge id=":1214770941_7" function="internal">
        <lane id=":1214770941_7_0" index="0" allow="pedestrian motorcycle moped bicycle" speed="5.56" length="14.68" shape="11854.69,10140.06 11858.89,10139.51 11862.40,10140.10 11865.23,10141.83 11867.38,10144.69"/>
    </edge>
    <edge id=":1214770941_8" function="internal">