<?xml version="1.0" encoding="UTF-8"?>

<!-- generated on 2021-11-06 01:11:43 by Eclipse SUMO netedit Version 1.10.0
<configuration xmlns:xsi="http://www.w3.org/2001/XMLSchema-instance" xsi:noNamespaceSchemaLocation="http://sumo.dlr.de/xsd/netconvertConfiguration.xsd">

    <input>
        <sumo-net-file value="/home/pedro/Documents/USP/Mestrado/MAC5910/Article/Workspace/veins/simulations/veins/osm.net.xml"/>
    </input>

    <output>
        <output-file value="/home/pedro/Documents/USP/Mestrado/MAC5910/Article/Workspace/veins/simulations/veins/osm.net.xml"/>
        <plain-output-prefix value="/home/pedro/Documents/USP/Mestrado/MAC5910/Article/Workspace/veins/simulations/veins/osm"/>
        <output.street-names value="true"/>
    </output>

    <processing>
        <geometry.min-radius.fix.railways value="false"/>
        <geometry.max-grade.fix value="false"/>
        <offset.disable-normalization value="true"/>
        <lefthand value="false"/>
    </processing>

    <junctions>
        <no-turnarounds value="true"/>
        <junctions.corner-detail value="5"/>
        <junctions.limit-turn-speed value="5.5"/>
        <rectangular-lane-cut value="false"/>
    </junctions>

    <pedestrian>
        <walkingareas value="false"/>
    </pedestrian>

    <report>
        <aggregate-warnings value="5"/>
    </report>

</configuration>
-->

<nodes version="1.9" xmlns:xsi="http://www.w3.org/2001/XMLSchema-instance" xsi:noNamespaceSchemaLocation="http://sumo.dlr.de/xsd/nodes_file.xsd">
    <location netOffset="-335098.67,2648758.09" convBoundary="1345.15,1568.58,16778.86,22189.73" origBoundary="-46.618665,-23.960229,-46.409384,-23.726632" projParameter="+proj=utm +zone=23 +ellps=WGS84 +datum=WGS84 +units=m +no_defs"/>

    <node id="1028696664" x="7869.37" y="19845.28" type="priority"/>
    <node id="1028696683" x="7588.71" y="20501.54" type="priority"/>
    <node id="1028696779" x="7654.06" y="20551.20" type="priority"/>
    <node id="1028696831" x="7539.04" y="20465.00" type="priority"/>
    <node id="1070732857" x="11371.26" y="14461.31" type="right_before_left"/>
    <node id="1070733096" x="11361.53" y="13496.23" type="priority" shape="11361.39,13495.58 11355.07,13495.53 11357.99,13499.93 11364.36,13500.49 11363.81,13497.40 11361.48,13495.41"/>
    <node id="1070733130" x="11378.33" y="13436.67" type="priority"/>
    <node id="1070733276" x="11247.26" y="14659.20" type="priority"/>
    <node id="1070733603" x="11258.30" y="14546.13" type="priority"/>
    <node id="1070733626" x="11255.03" y="14661.18" type="priority"/>
    <node id="1070733720" x="11231.64" y="14579.20" type="priority"/>
    <node id="1070733783" x="11373.52" y="13480.59" type="priority"/>
    <node id="1070733838" x="11407.88" y="14950.48" type="dead_end"/>
    <node id="1070733905" x="11157.54" y="13377.00" type="priority"/>
    <node id="1070733945" x="11202.73" y="14155.96" type="dead_end"/>
    <node id="1070734036" x="11098.55" y="13471.56" type="priority"/>
    <node id="111047835-AddedOffRampNode" x="8479.71" y="20964.93" type="dead_end"/>
    <node id="111051591#1-AddedOnRampNode" x="8046.22" y="19791.74" type="priority"/>
    <node id="111056350-AddedOnRampNode" x="2579.31" y="19066.08" type="priority"/>
    <node id="1214770800" x="11508.12" y="12116.26" type="priority"/>
    <node id="1214770941" x="11862.93" y="10139.68" type="right_before_left"/>
    <node id="1214770992" x="11725.12" y="9960.67" type="priority"/>
    <node id="1214771059" x="11849.26" y="10500.77" type="right_before_left"/>
    <node id="1214771162" x="11634.01" y="12237.78" type="right_before_left"/>
    <node id="1214771201" x="11529.49" y="11912.70" type="priority"/>
    <node id="1214771284" x="12699.91" y="8493.90" type="priority"/>
    <node id="1214771440" x="11669.57" y="11869.65" type="right_before_left"/>
    <node id="1214771561" x="12039.93" y="10220.66" type="right_before_left"/>
    <node id="1214771721" x="11413.20" y="13085.79" type="priority"/>
    <node id="1214953122" x="12099.58" y="9028.32" type="dead_end"/>
    <node id="126306712#2-AddedOffRampNode" x="5666.95" y="20575.28" type="priority"/>
    <node id="1266038360" x="2387.83" y="20428.80" type="priority"/>
    <node id="1266038361" x="2360.92" y="20371.48" type="priority"/>
    <node id="1266038364" x="7745.18" y="20708.38" type="priority"/>
    <node id="1266038368" x="2412.46" y="20402.03" type="priority"/>
    <node id="1266038381" x="2494.44" y="20842.98" type="priority"/>
    <node id="1266038393" x="2281.53" y="21127.31" type="priority"/>
    <node id="1266038403" x="8022.84" y="20954.19" type="priority"/>
    <node id="1266038416" x="2711.24" y="19756.80" type="priority"/>
    <node id="1266038417" x="2359.39" y="20338.42" type="priority"/>
    <node id="1266038418" x="2397.34" y="20651.30" type="priority"/>
    <node id="1266038421" x="2439.67" y="20315.38" type="priority"/>
    <node id="1266038444" x="3648.48" y="19711.24" type="priority"/>
    <node id="1266038447" x="2246.68" y="19665.11" type="dead_end"/>
    <node id="1266038450" x="2785.10" y="19876.34" type="priority"/>
    <node id="1266038462" x="2428.91" y="20981.32" type="priority"/>
    <node id="1266038467" x="2445.12" y="20384.73" type="priority"/>
    <node id="1266038475" x="2391.03" y="20846.25" type="priority"/>
    <node id="1266038491" x="2411.60" y="20303.48" type="priority"/>
    <node id="1266038539" x="3294.25" y="19824.47" type="priority"/>
    <node id="1266038543" x="2485.68" y="20583.25" type="priority"/>
    <node id="1266038544" x="2592.03" y="20211.52" type="priority"/>
    <node id="1266038551" x="2185.89" y="21413.91" type="dead_end"/>
    <node id="1266038559" x="2383.68" y="20247.12" type="priority"/>
    <node id="1266038561" x="2698.21" y="19891.35" type="priority"/>
    <node id="1266038570" x="2558.25" y="20627.27" type="priority"/>
    <node id="1266038572" x="2705.50" y="20455.32" type="dead_end"/>
    <node id="1266038576" x="2725.23" y="20487.82" type="priority"/>
    <node id="1266038581" x="2456.85" y="20352.33" type="priority"/>
    <node id="1266104188" x="2434.12" y="18559.21" type="priority"/>
    <node id="1266104198" x="2631.99" y="18973.27" type="priority"/>
    <node id="1266104224" x="2866.73" y="19277.30" type="priority"/>
    <node id="1266148913" x="2116.30" y="19533.83" type="priority"/>
    <node id="1266148932" x="2486.57" y="19673.71" type="priority"/>
    <node id="1266148937" x="1900.30" y="19358.08" type="priority"/>
    <node id="1266148946" x="2395.32" y="18565.13" type="priority"/>
    <node id="1266148962" x="7914.77" y="19837.89" type="priority"/>
    <node id="1266148984" x="2614.33" y="19159.74" type="priority"/>
    <node id="1266149005" x="2206.26" y="19601.26" type="priority"/>
    <node id="1266149013" x="2794.70" y="19783.53" type="priority"/>
    <node id="1266149033" x="1996.75" y="19433.19" type="priority"/>
    <node id="1266149037" x="2703.26" y="19856.39" type="priority"/>
    <node id="1266164127" x="3209.89" y="19849.21" type="priority"/>
    <node id="1266164131" x="3177.62" y="19843.71" type="priority"/>
    <node id="1266164133" x="1915.43" y="22189.73" type="dead_end"/>
    <node id="128650248#0-AddedOffRampNode" x="1814.11" y="19269.45" type="priority"/>
    <node id="128650250-AddedOffRampNode" x="4222.03" y="19887.29" type="priority"/>
    <node id="128650251#2-AddedOffRampNode" x="6520.34" y="19922.57" type="priority"/>
    <node id="128650251#2-AddedOnRampNode" x="5645.40" y="20553.06" type="priority"/>
    <node id="1396602566" x="8018.73" y="20982.26" type="priority"/>
    <node id="1396602973" x="8199.25" y="21399.07" type="dead_end"/>
    <node id="1406577869" x="2604.30" y="20848.81" type="dead_end"/>
    <node id="1421011428" x="12591.47" y="21572.94" type="dead_end"/>
    <node id="1421011528" x="12590.74" y="21538.31" type="dead_end"/>
    <node id="1421174734" x="7947.44" y="19807.25" type="priority"/>
    <node id="1421197570" x="5339.55" y="20611.21" type="priority"/>
    <node id="1421197584" x="1389.18" y="18984.03" type="dead_end"/>
    <node id="1421197597" x="1374.16" y="19005.10" type="dead_end"/>
    <node id="1421876336" x="6619.06" y="19907.51" type="priority"/>
    <node id="1422234069" x="7691.32" y="20582.59" type="priority"/>
    <node id="1422234089" x="8542.00" y="19613.05" type="priority"/>
    <node id="1422438571" x="7958.84" y="19764.15" type="dead_end"/>
    <node id="142700903#1-AddedOnRampNode" x="15963.55" y="3887.25" type="dead_end"/>
    <node id="142701016#1-AddedOnRampNode" x="16778.86" y="4737.81" type="dead_end"/>
    <node id="142863129" x="16450.48" y="4591.13" type="priority"/>
    <node id="1447461028" x="3724.42" y="13302.54" type="priority"/>
    <node id="1447462768" x="2239.50" y="18116.10" type="priority"/>
    <node id="1447464019" x="2231.68" y="18164.95" type="priority"/>
    <node id="1448056963" x="2740.31" y="20521.87" type="priority"/>
    <node id="153713978#2-AddedOnRampNode" x="11267.35" y="14446.54" type="priority"/>
    <node id="153713990#0-AddedOffRampNode" x="12359.28" y="8825.10" type="priority"/>
    <node id="153713990#3-AddedOnRampNode" x="11966.69" y="8418.59" type="priority"/>
    <node id="153713990#4-AddedOffRampNode" x="6692.21" y="5564.94" type="priority"/>
    <node id="153713991#1-AddedOffRampNode" x="9263.82" y="18057.29" type="dead_end"/>
    <node id="153713994#0-AddedOffRampNode" x="5765.84" y="5474.43" type="priority"/>
    <node id="153713995#1-AddedOnRampNode" x="6116.16" y="5525.32" type="priority"/>
    <node id="1561631364" x="16616.80" y="4648.64" type="priority"/>
    <node id="1663386909" x="9150.52" y="18439.47" type="priority"/>
    <node id="1663386921" x="9178.56" y="18374.39" type="priority"/>
    <node id="1663386928" x="9200.93" y="18332.55" type="priority"/>
    <node id="1663386955" x="12436.43" y="8861.52" type="priority"/>
    <node id="1663386956" x="12369.96" y="8836.02" type="priority"/>
    <node id="1663386957" x="12390.97" y="8814.82" type="priority"/>
    <node id="1663386976" x="5718.44" y="5501.70" type="priority"/>
    <node id="1663386979" x="11452.65" y="5265.01" type="priority"/>
    <node id="1787945356" x="12503.07" y="21205.97" type="dead_end"/>
    <node id="1805093864" x="2129.44" y="21303.10" type="dead_end"/>
    <node id="1805097628" x="2137.89" y="21299.58" type="priority"/>
    <node id="1805097703" x="2185.30" y="21088.91" type="dead_end"/>
    <node id="1897454091" x="9283.39" y="18421.59" type="dead_end"/>
    <node id="193125283#2-AddedOffRampNode" x="2203.43" y="18022.84" type="priority"/>
    <node id="193125283#2-AddedOnRampNode" x="4659.09" y="9073.16" type="priority"/>
    <node id="193125288#1-AddedOnRampNode" x="5947.15" y="4584.65" type="priority"/>
    <node id="2036430401" x="4905.10" y="7775.52" type="priority"/>
    <node id="2036437338" x="5561.84" y="5890.67" type="priority"/>
    <node id="2070932876" x="8538.93" y="20884.72" type="priority"/>
    <node id="2070932895" x="8542.40" y="20388.20" type="priority"/>
    <node id="2070941618" x="9153.78" y="18327.86" type="priority"/>
    <node id="2070941621" x="9067.93" y="18357.64" type="right_before_left"/>
    <node id="2070941628" x="9136.48" y="18351.05" type="priority"/>
    <node id="2135222464" x="9010.94" y="18287.37" type="dead_end"/>
    <node id="2135222503" x="9072.10" y="18094.31" type="priority"/>
    <node id="2135222509" x="9122.26" y="18052.89" type="right_before_left"/>
    <node id="2135222513" x="9162.50" y="18021.45" type="priority"/>
    <node id="2135222532" x="9106.71" y="17943.35" type="priority"/>
    <node id="2135222543" x="9135.43" y="17921.27" type="priority"/>
    <node id="2135222546" x="9365.95" y="17907.97" type="priority"/>
    <node id="2135222551" x="9176.39" y="17887.53" type="priority"/>
    <node id="2135222558" x="9069.90" y="17837.92" type="priority"/>
    <node id="2135222560" x="9225.94" y="17849.96" type="priority"/>
    <node id="2135400127" x="9317.81" y="18166.20" type="right_before_left"/>
    <node id="2135400131" x="9345.67" y="18122.69" type="priority"/>
    <node id="2135400143" x="9338.65" y="18013.06" type="dead_end"/>
    <node id="2135400156" x="9573.48" y="18000.43" type="dead_end"/>
    <node id="2351317781" x="14670.22" y="5562.59" type="priority"/>
    <node id="2406394218" x="14697.28" y="5124.07" type="priority"/>
    <node id="2406394225" x="14878.62" y="5086.18" type="priority"/>
    <node id="2406394231" x="14873.45" y="4949.47" type="priority"/>
    <node id="2406394234" x="14756.66" y="4901.46" type="priority"/>
    <node id="2406394237" x="14732.94" y="4894.43" type="priority"/>
    <node id="2406394253" x="13671.00" y="4865.87" type="priority"/>
    <node id="252219714#1-AddedOnRampNode" x="3857.99" y="19731.54" type="priority"/>
    <node id="252219714#3-AddedOffRampNode" x="5336.93" y="20583.15" type="priority"/>
    <node id="2578637617" x="8513.34" y="19570.46" type="dead_end"/>
    <node id="2578638226" x="8537.19" y="19538.51" type="priority"/>
    <node id="2578720404" x="8577.60" y="19351.45" type="priority"/>
    <node id="2578720406" x="8571.43" y="19369.13" type="priority"/>
    <node id="2578721121" x="8569.82" y="19378.46" type="priority"/>
    <node id="2578723686" x="8601.58" y="19653.39" type="priority"/>
    <node id="2578728634" x="8464.30" y="20520.53" type="priority"/>
    <node id="2578733181" x="8491.92" y="20612.29" type="dead_end"/>
    <node id="2578734788" x="8501.74" y="20640.40" type="dead_end"/>
    <node id="2578735988" x="8498.73" y="20640.91" type="dead_end"/>
    <node id="2578735989" x="8489.48" y="20611.44" type="right_before_left"/>
    <node id="2578741086" x="8529.60" y="19637.20" type="dead_end"/>
    <node id="2583093024" x="7408.81" y="20380.98" type="priority"/>
    <node id="2583093039" x="6912.82" y="19942.48" type="priority"/>
    <node id="2583097638" x="3261.44" y="19689.66" type="priority"/>
    <node id="2583100331" x="2484.98" y="20016.33" type="priority"/>
    <node id="2583102322" x="2670.34" y="20322.78" type="priority"/>
    <node id="2583102334" x="2720.25" y="20207.17" type="priority"/>
    <node id="2583103210" x="2235.76" y="19528.78" type="priority"/>
    <node id="2583103220" x="2587.37" y="19529.19" type="priority"/>
    <node id="2583103680" x="1897.07" y="19325.27" type="priority"/>
    <node id="2583103685" x="2546.68" y="19721.62" type="priority"/>
    <node id="2583103689" x="2655.84" y="19761.69" type="priority"/>
    <node id="2583107947" x="3983.97" y="19796.12" type="priority"/>
    <node id="2583107989" x="4133.64" y="19840.55" type="priority"/>
    <node id="2583127046" x="5448.74" y="20542.66" type="priority"/>
    <node id="2583127054" x="5440.65" y="20658.33" type="priority"/>
    <node id="2588679077" x="8763.09" y="18477.73" type="dead_end"/>
    <node id="2588679212" x="8821.03" y="18491.32" type="dead_end"/>
    <node id="2588679220" x="8828.03" y="18475.93" type="right_before_left"/>
    <node id="2598515012" x="9187.02" y="18205.45" type="priority"/>
    <node id="2598988906" x="8592.66" y="19630.52" type="priority"/>
    <node id="2598989141" x="8834.38" y="18461.86" type="right_before_left"/>
    <node id="2599066078" x="8403.08" y="21029.41" type="dead_end"/>
    <node id="2599066743" x="8379.16" y="21067.85" type="dead_end"/>
    <node id="2599066858" x="8529.38" y="20997.39" type="dead_end"/>
    <node id="2620342283" x="9048.52" y="18333.71" type="priority"/>
    <node id="2620372151" x="8341.72" y="21143.98" type="dead_end"/>
    <node id="2620372156" x="8354.42" y="21108.39" type="priority"/>
    <node id="2620372169" x="8384.04" y="21082.32" type="priority"/>
    <node id="2620377892" x="9229.44" y="18027.75" type="dead_end"/>
    <node id="2624041081" x="8449.41" y="20454.63" type="priority"/>
    <node id="2624043619" x="8458.69" y="20177.14" type="priority"/>
    <node id="2624045093" x="8405.79" y="20111.41" type="priority"/>
    <node id="2624072817" x="9532.44" y="17519.56" type="priority"/>
    <node id="26465199" x="2273.51" y="21342.85" type="dead_end"/>
    <node id="2647878581" x="2400.23" y="19914.30" type="priority"/>
    <node id="2647878642" x="1966.11" y="19900.25" type="dead_end"/>
    <node id="2647878709" x="2383.52" y="19981.49" type="dead_end"/>
    <node id="2647878716" x="2402.81" y="20001.82" type="right_before_left"/>
    <node id="2649827325" x="9199.80" y="18244.35" type="priority"/>
    <node id="2649827333" x="9238.22" y="18054.96" type="priority"/>
    <node id="2649827336" x="9279.92" y="17945.59" type="priority"/>
    <node id="2649827361" x="9747.89" y="17311.54" type="priority"/>
    <node id="2649827368" x="9878.12" y="17217.87" type="priority"/>
    <node id="2649827369" x="9932.35" y="17133.75" type="priority">
        <param key="buffer_stop" value="true"/>
    </node>
    <node id="2649827374" x="9851.59" y="17001.60" type="priority"/>
    <node id="2649827380" x="10168.35" y="16872.26" type="priority"/>
    <node id="26587589" x="5705.44" y="5335.99" type="priority"/>
    <node id="26587590" x="5738.95" y="5347.84" type="priority"/>
    <node id="26587779" x="6556.13" y="2547.39" type="priority"/>
    <node id="26587792" x="6608.92" y="2490.12" type="priority"/>
    <node id="26587794" x="6671.38" y="2146.42" type="priority"/>
    <node id="26591479" x="14907.66" y="4950.15" type="priority"/>
    <node id="26591486" x="16025.19" y="4595.61" type="priority"/>
    <node id="26591541" x="15840.53" y="4618.26" type="priority"/>
    <node id="26591544" x="15422.30" y="4815.72" type="priority"/>
    <node id="26604988" x="8564.47" y="20679.03" type="priority"/>
    <node id="26604998" x="8517.92" y="20336.23" type="priority"/>
    <node id="26605002" x="8516.30" y="20499.89" type="priority"/>
    <node id="26605042" x="8544.88" y="19650.06" type="priority"/>
    <node id="26605146" x="8536.20" y="19314.61" type="priority"/>
    <node id="26605196" x="8555.11" y="19238.79" type="priority"/>
    <node id="26605199" x="8811.18" y="18850.39" type="priority"/>
    <node id="26608525" x="9161.48" y="18414.78" type="priority"/>
    <node id="26608869" x="9153.70" y="18455.09" type="priority"/>
    <node id="26608877" x="9075.81" y="18574.35" type="priority"/>
    <node id="26609034" x="8581.53" y="19763.10" type="priority"/>
    <node id="26705762" x="9232.10" y="18152.71" type="priority"/>
    <node id="26705782" x="10111.79" y="16985.59" type="priority"/>
    <node id="26705786" x="10274.28" y="16853.11" type="priority"/>
    <node id="26727303" x="12021.51" y="9200.82" type="priority"/>
    <node id="26727364" x="12462.96" y="8785.67" type="priority"/>
    <node id="26727371" x="12504.37" y="8758.62" type="priority"/>
    <node id="26727399" x="12933.39" y="8102.94" type="priority"/>
    <node id="2685600707" x="15403.24" y="8331.38" type="dead_end"/>
    <node id="26893972" x="13137.88" y="5803.75" type="priority"/>
    <node id="26893982" x="13298.43" y="5846.99" type="priority"/>
    <node id="26894385" x="14580.61" y="5528.55" type="priority"/>
    <node id="26894404" x="14980.36" y="5561.65" type="priority"/>
    <node id="2710196485" x="8539.18" y="19231.69" type="dead_end"/>
    <node id="2710202074" x="8218.69" y="21414.13" type="dead_end"/>
    <node id="2739829829" x="8548.37" y="19529.25" type="priority"/>
    <node id="2842315093" x="4246.99" y="11247.25" type="priority"/>
    <node id="2842315098" x="4270.96" y="10972.27" type="priority"/>
    <node id="2842315099" x="4272.83" y="10951.50" type="priority"/>
    <node id="2842315304" x="4393.25" y="10672.46" type="priority"/>
    <node id="286066614" x="9078.09" y="18405.73" type="priority"/>
    <node id="286831812-AddedOffRampNode" x="9194.30" y="18364.05" type="priority"/>
    <node id="287782211#0-AddedOffRampNode" x="8526.69" y="19413.98" type="priority"/>
    <node id="2880911305" x="9164.38" y="18147.78" type="right_before_left"/>
    <node id="2902993509" x="3625.95" y="13718.76" type="priority"/>
    <node id="2902993544" x="3549.29" y="13653.06" type="priority"/>
    <node id="2902993566" x="3589.96" y="13620.63" type="right_before_left"/>
    <node id="2902993604" x="3583.06" y="13492.15" type="priority"/>
    <node id="2902993628" x="3628.64" y="13410.99" type="right_before_left"/>
    <node id="2902993631" x="3703.65" y="13400.14" type="priority"/>
    <node id="2902994023" x="4418.84" y="12207.94" type="dead_end"/>
    <node id="292771162#1-AddedOffRampNode" x="8554.30" y="19749.61" type="priority"/>
    <node id="292771162#1-AddedOnRampNode" x="8541.38" y="20239.02" type="priority"/>
    <node id="29321807" x="9094.26" y="18447.61" type="priority"/>
    <node id="29321858" x="9204.70" y="18415.51" type="priority"/>
    <node id="2963069197" x="8485.93" y="20539.89" type="priority"/>
    <node id="2965464223" x="3836.69" y="19898.33" type="dead_end"/>
    <node id="2965464605" x="4126.31" y="19805.72" type="priority"/>
    <node id="2965464614" x="4270.20" y="19884.66" type="priority"/>
    <node id="2965464635" x="4080.84" y="19850.21" type="dead_end"/>
    <node id="2965475391" x="1345.15" y="19019.46" type="priority"/>
    <node id="2978596072" x="2385.27" y="19971.58" type="dead_end"/>
    <node id="2995153260" x="7801.38" y="20631.90" type="right_before_left"/>
    <node id="2995153263" x="7819.94" y="20618.18" type="priority"/>
    <node id="2995153265" x="7814.35" y="20613.54" type="right_before_left"/>
    <node id="2995153276" x="7783.21" y="20586.78" type="priority"/>
    <node id="2995153279" x="3756.85" y="19848.02" type="priority"/>
    <node id="2995153280" x="3694.99" y="19846.65" type="right_before_left"/>
    <node id="2995153281" x="3685.42" y="19846.55" type="priority"/>
    <node id="2995153292" x="3695.09" y="19821.86" type="priority"/>
    <node id="2995153299" x="3470.97" y="19791.09" type="priority"/>
    <node id="2995153304" x="2482.49" y="19632.21" type="priority"/>
    <node id="2995153307" x="2527.12" y="19617.81" type="right_before_left"/>
    <node id="2995153309" x="2535.13" y="19615.25" type="priority"/>
    <node id="2995153324" x="2396.17" y="19597.60" type="priority"/>
    <node id="2995153329" x="2517.92" y="19587.64" type="right_before_left"/>
    <node id="3000027265" x="3395.78" y="14218.07" type="priority"/>
    <node id="3005720942" x="8994.46" y="18633.77" type="priority"/>
    <node id="3059834697" x="9150.58" y="18171.65" type="dead_end"/>
    <node id="3059834896" x="9122.33" y="18229.87" type="priority"/>
    <node id="3059836205" x="9159.03" y="18177.77" type="priority"/>
    <node id="3062922932" x="9128.87" y="18232.91" type="priority"/>
    <node id="3089980853" x="9082.47" y="18149.33" type="right_before_left"/>
    <node id="3089980858" x="9075.51" y="18181.19" type="priority"/>
    <node id="3090070731" x="2133.23" y="21305.92" type="priority"/>
    <node id="3090075051" x="2039.09" y="21800.29" type="dead_end"/>
    <node id="3093471935" x="2718.73" y="19077.86" type="dead_end"/>
    <node id="3093472109" x="2693.12" y="19020.49" type="dead_end"/>
    <node id="3094246709" x="2835.63" y="19023.34" type="dead_end"/>
    <node id="310668918#0-AddedOffRampNode" x="8574.76" y="20869.82" type="priority"/>
    <node id="3142640853" x="4669.71" y="8923.52" type="priority"/>
    <node id="3160124788" x="8527.85" y="20957.64" type="priority"/>
    <node id="3160124880" x="8480.88" y="21025.00" type="priority"/>
    <node id="3286912114" x="9058.82" y="18102.98" type="priority"/>
    <node id="3293187366" x="8217.17" y="21397.90" type="dead_end"/>
    <node id="3369522172" x="9121.13" y="18341.40" type="right_before_left"/>
    <node id="3369522173" x="9147.58" y="18354.71" type="priority"/>
    <node id="357823278" x="9155.50" y="18384.43" type="dead_end"/>
    <node id="357823334" x="9135.90" y="18236.35" type="priority"/>
    <node id="357823357" x="9162.41" y="18294.23" type="priority"/>
    <node id="357823394" x="9040.36" y="18487.25" type="priority"/>
    <node id="3633235459" x="16022.59" y="3707.11" type="dead_end"/>
    <node id="3838340702" x="14625.71" y="5584.32" type="priority"/>
    <node id="3838340703" x="14618.31" y="5583.55" type="priority"/>
    <node id="3838340704" x="14659.71" y="5619.03" type="priority"/>
    <node id="3838360747" x="14938.51" y="5626.97" type="priority"/>
    <node id="3838360748" x="14961.80" y="5584.18" type="priority"/>
    <node id="3838360749" x="14946.44" y="5612.60" type="priority"/>
    <node id="3838360761" x="14621.09" y="5579.71" type="priority"/>
    <node id="3838360765" x="14657.95" y="5543.39" type="priority"/>
    <node id="3838360768" x="14643.02" y="5507.77" type="dead_end"/>
    <node id="3838360770" x="14471.95" y="5543.00" type="priority"/>
    <node id="3838360772" x="14474.02" y="5499.17" type="priority"/>
    <node id="3888619186" x="6925.27" y="1747.75" type="priority"/>
    <node id="3888619196" x="7075.72" y="1838.63" type="priority"/>
    <node id="3888619213" x="7577.40" y="2182.20" type="priority"/>
    <node id="3888619225" x="7845.61" y="2414.59" type="right_before_left"/>
    <node id="3888626292" x="8996.66" y="2641.41" type="priority"/>
    <node id="3888626329" x="10191.63" y="3062.04" type="priority"/>
    <node id="3888626606" x="12575.57" y="6420.73" type="priority"/>
    <node id="3888626612" x="12666.52" y="6524.10" type="priority"/>
    <node id="3888626760" x="13565.78" y="4906.96" type="dead_end"/>
    <node id="3888626771" x="14254.91" y="4927.22" type="priority"/>
    <node id="3888626784" x="14570.31" y="4983.76" type="priority"/>
    <node id="3889897838" x="9219.19" y="18089.79" type="right_before_left"/>
    <node id="41473028" x="5367.64" y="6471.23" type="priority"/>
    <node id="41475192" x="6592.39" y="5558.80" type="priority"/>
    <node id="41475228" x="12243.24" y="8706.22" type="priority"/>
    <node id="41475229" x="12414.05" y="8883.51" type="priority"/>
    <node id="41475254" x="12297.75" y="8954.19" type="priority"/>
    <node id="41476105" x="12036.51" y="8490.17" type="priority"/>
    <node id="41476515" x="12291.72" y="8946.08" type="priority"/>
    <node id="41476863" x="12289.38" y="8753.58" type="priority"/>
    <node id="41479412" x="12615.03" y="8725.07" type="priority"/>
    <node id="41479458" x="5728.57" y="5472.27" type="priority"/>
    <node id="41479459" x="5628.69" y="5467.06" type="priority"/>
    <node id="41479647" x="5915.98" y="4679.67" type="priority"/>
    <node id="41480524" x="5619.90" y="5496.44" type="priority"/>
    <node id="41480525" x="6215.99" y="5531.24" type="priority"/>
    <node id="41480928" x="5865.67" y="5480.22" type="priority"/>
    <node id="41481843" x="6067.86" y="4340.95" type="priority"/>
    <node id="41482255" x="6804.81" y="5538.01" type="priority"/>
    <node id="41483484" x="11941.49" y="8350.11" type="priority"/>
    <node id="41483994" x="12777.38" y="8304.02" type="priority"/>
    <node id="41484451" x="12299.00" y="8718.12" type="priority"/>
    <node id="4254599991" x="8610.95" y="20706.39" type="dead_end"/>
    <node id="4254604578" x="8404.16" y="21034.66" type="dead_end"/>
    <node id="4257286756" x="8638.87" y="19387.33" type="priority"/>
    <node id="4340575101" x="12622.93" y="8593.25" type="priority"/>
    <node id="4340575102" x="12625.39" y="8557.88" type="right_before_left"/>
    <node id="4340575108" x="12247.98" y="8506.15" type="right_before_left"/>
    <node id="4340575128" x="12480.62" y="8516.22" type="right_before_left"/>
    <node id="4340575130" x="12495.15" y="8560.95" type="priority"/>
    <node id="4340575131" x="12561.22" y="8528.48" type="right_before_left"/>
    <node id="4340575135" x="12486.51" y="8464.91" type="priority"/>
    <node id="4340575141" x="12569.03" y="8520.67" type="right_before_left"/>
    <node id="4340575142" x="12558.79" y="8506.68" type="priority"/>
    <node id="4340575146" x="12550.73" y="8535.28" type="right_before_left"/>
    <node id="4340575148" x="12578.01" y="8531.06" type="right_before_left"/>
    <node id="4340575152" x="12709.11" y="8434.58" type="priority"/>
    <node id="4340575153" x="12593.84" y="8540.43" type="right_before_left"/>
    <node id="4340575154" x="12567.00" y="8589.76" type="priority"/>
    <node id="4340575157" x="12499.81" y="8543.68" type="right_before_left"/>
    <node id="4340578510" x="5594.02" y="5787.98" type="priority"/>
    <node id="4341484660" x="1653.02" y="19248.04" type="priority"/>
    <node id="4345262822" x="2094.76" y="17298.27" type="priority"/>
    <node id="4345264998" x="2122.82" y="17902.07" type="dead_end"/>
    <node id="4345264999" x="2058.87" y="17652.67" type="priority"/>
    <node id="4345265001" x="2079.36" y="17463.78" type="priority"/>
    <node id="4458026434" x="9046.68" y="17866.83" type="priority"/>
    <node id="4476143976" x="9001.74" y="18574.17" type="dead_end"/>
    <node id="4593663670" x="12592.82" y="8657.67" type="priority"/>
    <node id="4646095092" x="8569.00" y="19631.55" type="priority"/>
    <node id="4732782904" x="12160.04" y="8521.05" type="priority"/>
    <node id="4752998727" x="9207.39" y="18118.67" type="priority"/>
    <node id="4753088617" x="11492.66" y="14443.30" type="priority"/>
    <node id="4753088619" x="11308.26" y="14531.77" type="priority"/>
    <node id="4753088620" x="11294.80" y="14524.80" type="priority"/>
    <node id="4753108925" x="11345.77" y="14522.57" type="right_before_left"/>
    <node id="4753777247" x="9186.27" y="18068.02" type="dead_end"/>
    <node id="5132101805" x="4315.12" y="11914.27" type="dead_end"/>
    <node id="5166413822" x="9170.72" y="18186.30" type="priority"/>
    <node id="5166413823" x="9148.54" y="18210.36" type="dead_end"/>
    <node id="5166413824" x="9135.09" y="18204.18" type="priority"/>
    <node id="5166413826" x="9155.36" y="18175.09" type="priority"/>
    <node id="5349589067" x="9141.90" y="18207.30" type="priority"/>
    <node id="5585869#1-AddedOnRampNode" x="6904.61" y="5544.33" type="priority"/>